  
       XFOIL         Version 6.99
  
 Calculated polar for: NACA 0012                                       
  
 1 1 Reynolds number fixed          Mach number fixed         
  
 xtrf =   1.000 (top)        1.000 (bottom)  
 Mach =   0.000     Re =     0.123 e 6     Ncrit =   9.000
  
   alpha    CL        CD       CDp       CM     Top_Xtr  Bot_Xtr
  ------ -------- --------- --------- -------- -------- --------
   0.000  -0.0000   0.01516   0.00903   0.0000   0.9631   0.9631
   0.100   0.0294   0.01515   0.00902  -0.0036   0.9601   0.9666
   0.200   0.0585   0.01511   0.00899  -0.0071   0.9574   0.9703
   0.300   0.0889   0.01503   0.00892  -0.0108   0.9540   0.9722
   0.400   0.1162   0.01493   0.00883  -0.0139   0.9482   0.9748
   0.500   0.1445   0.01480   0.00872  -0.0172   0.9435   0.9776
   0.600   0.1703   0.01467   0.00860  -0.0200   0.9379   0.9811
   0.700   0.1947   0.01452   0.00847  -0.0225   0.9300   0.9842
   0.800   0.2212   0.01433   0.00829  -0.0253   0.9234   0.9867
   0.900   0.2433   0.01416   0.00814  -0.0273   0.9130   0.9903
   1.000   0.2650   0.01399   0.00798  -0.0292   0.9032   0.9941
   1.100   0.2868   0.01378   0.00778  -0.0311   0.8924   0.9971
   1.200   0.3038   0.01363   0.00763  -0.0321   0.8793   1.0000
   1.300   0.3122   0.01351   0.00749  -0.0315   0.8660   1.0000
   1.400   0.3203   0.01340   0.00735  -0.0307   0.8532   1.0000
   1.500   0.3281   0.01329   0.00721  -0.0299   0.8409   1.0000
   1.600   0.3355   0.01322   0.00710  -0.0291   0.8270   1.0000
   1.700   0.3431   0.01315   0.00701  -0.0283   0.8133   1.0000
   1.800   0.3508   0.01309   0.00692  -0.0275   0.8000   1.0000
   1.900   0.3586   0.01304   0.00682  -0.0267   0.7871   1.0000
   2.000   0.3666   0.01300   0.00673  -0.0259   0.7743   1.0000
   2.100   0.3746   0.01298   0.00667  -0.0252   0.7601   1.0000
   2.200   0.3828   0.01296   0.00661  -0.0245   0.7462   1.0000
   2.300   0.3912   0.01295   0.00655  -0.0239   0.7325   1.0000
   2.400   0.3996   0.01295   0.00650  -0.0232   0.7191   1.0000
   2.500   0.4081   0.01296   0.00644  -0.0226   0.7058   1.0000
   2.600   0.4166   0.01298   0.00641  -0.0220   0.6918   1.0000
   2.700   0.4252   0.01300   0.00639  -0.0214   0.6774   1.0000
   2.800   0.4339   0.01303   0.00638  -0.0209   0.6632   1.0000
   2.900   0.4425   0.01307   0.00636  -0.0203   0.6491   1.0000
   3.000   0.4511   0.01312   0.00635  -0.0198   0.6353   1.0000
   3.100   0.4597   0.01318   0.00633  -0.0192   0.6216   1.0000
   3.200   0.4682   0.01324   0.00633  -0.0186   0.6074   1.0000
   3.300   0.4767   0.01330   0.00635  -0.0181   0.5928   1.0000
   3.400   0.4852   0.01337   0.00637  -0.0175   0.5783   1.0000
   3.500   0.4937   0.01345   0.00640  -0.0170   0.5638   1.0000
   3.600   0.5021   0.01353   0.00643  -0.0164   0.5494   1.0000
   3.700   0.5105   0.01362   0.00646  -0.0158   0.5351   1.0000
   3.800   0.5189   0.01372   0.00649  -0.0153   0.5208   1.0000
   4.000   0.5354   0.01393   0.00658  -0.0141   0.4913   1.0000
   4.100   0.5436   0.01404   0.00664  -0.0136   0.4762   1.0000
   4.200   0.5518   0.01416   0.00670  -0.0130   0.4610   1.0000
   4.300   0.5599   0.01428   0.00678  -0.0124   0.4459   1.0000
   4.400   0.5680   0.01442   0.00686  -0.0118   0.4307   1.0000
   4.500   0.5759   0.01456   0.00693  -0.0112   0.4153   1.0000
   4.600   0.5838   0.01471   0.00702  -0.0106   0.3999   1.0000
   4.700   0.5917   0.01487   0.00711  -0.0100   0.3845   1.0000
   4.800   0.5994   0.01504   0.00721  -0.0094   0.3689   1.0000
   4.900   0.6071   0.01522   0.00732  -0.0088   0.3533   1.0000
   5.000   0.6147   0.01541   0.00744  -0.0081   0.3377   1.0000
   5.100   0.6222   0.01562   0.00756  -0.0075   0.3222   1.0000
   5.200   0.6297   0.01583   0.00771  -0.0069   0.3067   1.0000
   5.300   0.6370   0.01607   0.00786  -0.0062   0.2915   1.0000
   5.400   0.6443   0.01632   0.00802  -0.0056   0.2767   1.0000
   5.500   0.6517   0.01657   0.00820  -0.0049   0.2619   1.0000
   5.600   0.6590   0.01683   0.00840  -0.0043   0.2475   1.0000
   5.700   0.6664   0.01710   0.00861  -0.0036   0.2339   1.0000
   5.800   0.6736   0.01740   0.00883  -0.0030   0.2213   1.0000
   5.900   0.6807   0.01773   0.00906  -0.0023   0.2103   1.0000
   6.000   0.6879   0.01803   0.00929  -0.0016   0.1995   1.0000
   6.100   0.6954   0.01833   0.00958  -0.0010   0.1890   1.0000
   6.200   0.7024   0.01871   0.00984  -0.0004   0.1805   1.0000
   6.300   0.7101   0.01899   0.01012   0.0003   0.1716   1.0000
   6.400   0.7172   0.01938   0.01043   0.0009   0.1645   1.0000
   6.500   0.7250   0.01967   0.01071   0.0015   0.1570   1.0000
   6.600   0.7321   0.02011   0.01103   0.0021   0.1512   1.0000
   6.700   0.7401   0.02039   0.01137   0.0027   0.1447   1.0000
   6.800   0.7476   0.02075   0.01166   0.0033   0.1395   1.0000
   6.900   0.7554   0.02118   0.01207   0.0039   0.1346   1.0000
   7.000   0.7634   0.02149   0.01242   0.0045   0.1295   1.0000
   7.100   0.7711   0.02186   0.01272   0.0050   0.1254   1.0000
   7.200   0.7791   0.02239   0.01320   0.0055   0.1215   1.0000
   7.300   0.7874   0.02272   0.01361   0.0061   0.1176   1.0000
   7.400   0.7955   0.02307   0.01395   0.0066   0.1139   1.0000
   7.500   0.8036   0.02353   0.01431   0.0070   0.1108   1.0000
   7.600   0.8120   0.02411   0.01489   0.0074   0.1078   1.0000
   7.700   0.8203   0.02447   0.01535   0.0080   0.1047   1.0000
   7.800   0.8286   0.02487   0.01578   0.0085   0.1019   1.0000
   7.900   0.8371   0.02528   0.01616   0.0089   0.0994   1.0000
   8.000   0.8459   0.02593   0.01670   0.0091   0.0970   1.0000
   8.100   0.8543   0.02653   0.01736   0.0096   0.0948   1.0000
   8.200   0.8623   0.02694   0.01789   0.0101   0.0925   1.0000
   8.300   0.8705   0.02740   0.01842   0.0106   0.0904   1.0000
   8.400   0.8789   0.02788   0.01892   0.0111   0.0884   1.0000
   8.500   0.8875   0.02838   0.01939   0.0114   0.0867   1.0000
   8.600   0.8966   0.02908   0.02002   0.0116   0.0850   1.0000
   8.700   0.9048   0.03000   0.02098   0.0119   0.0834   1.0000
   8.800   0.9118   0.03048   0.02164   0.0126   0.0819   1.0000
   8.900   0.9191   0.03104   0.02232   0.0132   0.0803   1.0000
   9.000   0.9266   0.03161   0.02298   0.0137   0.0787   1.0000
   9.100   0.9343   0.03221   0.02363   0.0142   0.0774   1.0000
   9.200   0.9419   0.03283   0.02431   0.0147   0.0762   1.0000
   9.300   0.9498   0.03346   0.02495   0.0150   0.0751   1.0000
   9.400   0.9582   0.03423   0.02569   0.0153   0.0740   1.0000
   9.500   0.9662   0.03567   0.02710   0.0154   0.0728   1.0000
   9.600   0.9706   0.03636   0.02799   0.0163   0.0721   1.0000
   9.700   0.9748   0.03710   0.02894   0.0172   0.0712   1.0000
   9.800   0.9790   0.03794   0.02997   0.0181   0.0703   1.0000
  10.000   0.9873   0.03973   0.03207   0.0197   0.0685   1.0000
