  
       XFOIL         Version 6.99
  
 Calculated polar for: NACA 0012                                       
  
 1 1 Reynolds number fixed          Mach number fixed         
  
 xtrf =   1.000 (top)        1.000 (bottom)  
 Mach =   0.000     Re =     0.500 e 6     Ncrit =   9.000
  
   alpha    CL        CD       CDp       CM     Top_Xtr  Bot_Xtr
  ------ -------- --------- --------- -------- -------- --------
   0.000   0.0000   0.00617   0.00192  -0.0000   0.7923   0.7923
   0.100   0.0104   0.00617   0.00193   0.0003   0.7827   0.8015
   0.200   0.0207   0.00618   0.00193   0.0006   0.7734   0.8105
   0.300   0.0311   0.00618   0.00194   0.0009   0.7633   0.8195
   0.400   0.0415   0.00620   0.00194   0.0013   0.7536   0.8280
   0.500   0.0518   0.00622   0.00195   0.0016   0.7434   0.8366
   0.600   0.0622   0.00624   0.00196   0.0019   0.7332   0.8447
   0.700   0.0724   0.00627   0.00198   0.0022   0.7231   0.8528
   0.800   0.0829   0.00630   0.00199   0.0025   0.7124   0.8605
   0.900   0.0932   0.00633   0.00201   0.0029   0.7021   0.8681
   1.000   0.1034   0.00638   0.00203   0.0032   0.6913   0.8757
   1.100   0.1139   0.00641   0.00206   0.0035   0.6805   0.8823
   1.200   0.1241   0.00646   0.00208   0.0038   0.6700   0.8897
   1.300   0.1346   0.00651   0.00210   0.0041   0.6588   0.8957
   1.400   0.1450   0.00656   0.00213   0.0044   0.6479   0.9022
   1.500   0.1552   0.00662   0.00216   0.0048   0.6371   0.9088
   1.600   0.1660   0.00669   0.00219   0.0050   0.6257   0.9139
   1.700   0.1765   0.00674   0.00222   0.0053   0.6145   0.9199
   1.800   0.1867   0.00681   0.00226   0.0056   0.6035   0.9257
   1.900   0.1981   0.00689   0.00230   0.0057   0.5918   0.9299
   2.000   0.2089   0.00696   0.00234   0.0059   0.5803   0.9352
   2.100   0.2189   0.00703   0.00237   0.0062   0.5691   0.9408
   2.300   0.2433   0.00720   0.00246   0.0060   0.5447   0.9478
   2.400   0.2544   0.00728   0.00250   0.0061   0.5330   0.9524
   2.500   0.2655   0.00737   0.00254   0.0062   0.5215   0.9565
   2.600   0.2791   0.00747   0.00259   0.0057   0.5083   0.9588
   2.700   0.2928   0.00756   0.00264   0.0052   0.4955   0.9614
   2.800   0.3059   0.00766   0.00269   0.0049   0.4828   0.9643
   2.900   0.3180   0.00776   0.00274   0.0047   0.4704   0.9678
   3.000   0.3306   0.00786   0.00279   0.0044   0.4574   0.9707
   3.100   0.3458   0.00796   0.00284   0.0036   0.4435   0.9720
   3.200   0.3612   0.00807   0.00290   0.0027   0.4295   0.9733
   3.300   0.3767   0.00818   0.00296   0.0017   0.4154   0.9747
   3.400   0.3919   0.00829   0.00302   0.0008   0.4012   0.9762
   3.500   0.4066   0.00841   0.00307   0.0001   0.3870   0.9779
   3.600   0.4205   0.00853   0.00313  -0.0006   0.3733   0.9800
   3.700   0.4330   0.00864   0.00320  -0.0009   0.3596   0.9828
   3.800   0.4488   0.00875   0.00326  -0.0019   0.3449   0.9836
   3.900   0.4645   0.00887   0.00332  -0.0029   0.3303   0.9846
   4.000   0.4799   0.00899   0.00338  -0.0039   0.3154   0.9858
   4.100   0.4950   0.00912   0.00344  -0.0048   0.3009   0.9870
   4.200   0.5099   0.00925   0.00351  -0.0057   0.2865   0.9884
   4.300   0.5245   0.00938   0.00358  -0.0065   0.2722   0.9899
   4.400   0.5388   0.00952   0.00366  -0.0073   0.2580   0.9915
   4.500   0.5528   0.00967   0.00374  -0.0080   0.2442   0.9931
   4.600   0.5676   0.00980   0.00381  -0.0088   0.2300   0.9942
   4.700   0.5827   0.00994   0.00389  -0.0098   0.2161   0.9952
   4.800   0.5978   0.01007   0.00397  -0.0107   0.2029   0.9962
   4.900   0.6127   0.01021   0.00405  -0.0116   0.1901   0.9974
   5.000   0.6274   0.01037   0.00414  -0.0125   0.1776   0.9985
   5.100   0.6421   0.01053   0.00424  -0.0134   0.1656   0.9995
   5.200   0.6538   0.01066   0.00433  -0.0136   0.1553   1.0000
   5.300   0.6625   0.01077   0.00440  -0.0132   0.1472   1.0000
   5.400   0.6710   0.01091   0.00449  -0.0128   0.1387   1.0000
   5.500   0.6797   0.01102   0.00457  -0.0123   0.1314   1.0000
   5.600   0.6880   0.01117   0.00467  -0.0119   0.1239   1.0000
   5.700   0.6966   0.01128   0.00476  -0.0114   0.1177   1.0000
   5.800   0.7049   0.01143   0.00487  -0.0110   0.1112   1.0000
   5.900   0.7134   0.01154   0.00497  -0.0105   0.1059   1.0000
   6.000   0.7218   0.01168   0.00508  -0.0100   0.1005   1.0000
   6.100   0.7299   0.01184   0.00520  -0.0095   0.0954   1.0000
   6.200   0.7385   0.01194   0.00531  -0.0090   0.0913   1.0000
   6.300   0.7466   0.01210   0.00543  -0.0085   0.0870   1.0000
   6.400   0.7547   0.01226   0.00557  -0.0079   0.0831   1.0000
   6.500   0.7632   0.01237   0.00568  -0.0074   0.0800   1.0000
   6.600   0.7714   0.01251   0.00581  -0.0069   0.0767   1.0000
   6.700   0.7790   0.01273   0.00599  -0.0063   0.0732   1.0000
   6.800   0.7875   0.01283   0.00611  -0.0058   0.0710   1.0000
   6.900   0.7960   0.01295   0.00623  -0.0053   0.0685   1.0000
   7.000   0.8041   0.01311   0.00637  -0.0047   0.0661   1.0000
   7.100   0.8115   0.01334   0.00657  -0.0041   0.0634   1.0000
   7.200   0.8198   0.01348   0.00672  -0.0036   0.0616   1.0000
   7.300   0.8283   0.01360   0.00685  -0.0031   0.0599   1.0000
   7.400   0.8367   0.01374   0.00700  -0.0025   0.0582   1.0000
   7.500   0.8447   0.01392   0.00716  -0.0020   0.0565   1.0000
   7.600   0.8519   0.01417   0.00739  -0.0013   0.0545   1.0000
   7.700   0.8598   0.01436   0.00759  -0.0007   0.0531   1.0000
   7.800   0.8685   0.01448   0.00773  -0.0003   0.0519   1.0000
   7.900   0.8769   0.01462   0.00788   0.0002   0.0506   1.0000
   8.000   0.8853   0.01477   0.00804   0.0007   0.0493   1.0000
   8.100   0.8932   0.01497   0.00822   0.0013   0.0480   1.0000
   8.200   0.9001   0.01526   0.00850   0.0020   0.0467   1.0000
   8.300   0.9075   0.01551   0.00876   0.0026   0.0456   1.0000
   8.400   0.9161   0.01565   0.00893   0.0031   0.0448   1.0000
   8.500   0.9245   0.01581   0.00911   0.0036   0.0439   1.0000
   8.600   0.9329   0.01598   0.00929   0.0041   0.0430   1.0000
   8.700   0.9412   0.01616   0.00948   0.0046   0.0421   1.0000
   8.800   0.9493   0.01636   0.00967   0.0051   0.0412   1.0000
   8.900   0.9566   0.01664   0.00994   0.0056   0.0403   1.0000
   9.000   0.9621   0.01709   0.01039   0.0065   0.0393   1.0000
   9.100   0.9712   0.01722   0.01055   0.0069   0.0387   1.0000
   9.200   0.9799   0.01738   0.01074   0.0073   0.0381   1.0000
   9.300   0.9884   0.01757   0.01095   0.0077   0.0373   1.0000
   9.400   0.9968   0.01777   0.01117   0.0081   0.0366   1.0000
   9.500   1.0051   0.01798   0.01139   0.0086   0.0360   1.0000
   9.600   1.0132   0.01820   0.01162   0.0090   0.0354   1.0000
   9.700   1.0210   0.01845   0.01188   0.0095   0.0348   1.0000
   9.800   1.0279   0.01879   0.01221   0.0101   0.0343   1.0000
   9.900   1.0330   0.01933   0.01274   0.0109   0.0336   1.0000
  10.000   1.0408   0.01960   0.01305   0.0114   0.0332   1.0000
  10.100   1.0492   0.01980   0.01329   0.0118   0.0328   1.0000
  10.200   1.0574   0.02002   0.01355   0.0122   0.0323   1.0000
  10.300   1.0654   0.02026   0.01381   0.0126   0.0318   1.0000
  10.400   1.0733   0.02050   0.01408   0.0131   0.0313   1.0000
  10.500   1.0812   0.02074   0.01434   0.0135   0.0308   1.0000
  10.600   1.0889   0.02099   0.01460   0.0140   0.0303   1.0000
  10.700   1.0964   0.02125   0.01487   0.0144   0.0299   1.0000
  10.800   1.1035   0.02154   0.01517   0.0149   0.0295   1.0000
  10.900   1.1097   0.02193   0.01555   0.0155   0.0291   1.0000
  11.000   1.1142   0.02250   0.01612   0.0163   0.0286   1.0000
  11.100   1.1192   0.02302   0.01668   0.0171   0.0283   1.0000
  11.200   1.1266   0.02328   0.01698   0.0175   0.0280   1.0000
  11.300   1.1336   0.02357   0.01732   0.0181   0.0278   1.0000
  11.400   1.1403   0.02388   0.01767   0.0186   0.0275   1.0000
  11.500   1.1468   0.02421   0.01804   0.0192   0.0271   1.0000
  11.600   1.1531   0.02454   0.01842   0.0198   0.0268   1.0000
  11.700   1.1591   0.02489   0.01880   0.0204   0.0265   1.0000
  11.800   1.1649   0.02524   0.01918   0.0210   0.0262   1.0000
  11.900   1.1700   0.02558   0.01954   0.0217   0.0260   1.0000
  12.000   1.1748   0.02592   0.01991   0.0225   0.0257   1.0000
  12.100   1.1792   0.02628   0.02029   0.0233   0.0255   1.0000
  12.200   1.1836   0.02665   0.02067   0.0241   0.0253   1.0000
  12.300   1.1877   0.02704   0.02107   0.0249   0.0250   1.0000
  12.400   1.1914   0.02747   0.02152   0.0256   0.0248   1.0000
  12.500   1.1944   0.02799   0.02205   0.0264   0.0246   1.0000
  12.600   1.1964   0.02865   0.02273   0.0273   0.0243   1.0000
  12.700   1.1963   0.02962   0.02373   0.0283   0.0240   1.0000
  12.800   1.1999   0.03007   0.02424   0.0290   0.0239   1.0000
  12.900   1.2036   0.03051   0.02474   0.0296   0.0237   1.0000
  13.000   1.2071   0.03099   0.02528   0.0302   0.0235   1.0000
  13.100   1.2103   0.03151   0.02585   0.0307   0.0233   1.0000
  13.200   1.2133   0.03206   0.02646   0.0313   0.0232   1.0000
  13.300   1.2160   0.03266   0.02710   0.0318   0.0230   1.0000
  13.400   1.2185   0.03328   0.02778   0.0322   0.0228   1.0000
  13.500   1.2207   0.03394   0.02848   0.0327   0.0226   1.0000
  13.600   1.2227   0.03463   0.02923   0.0331   0.0224   1.0000
  13.700   1.2246   0.03536   0.03000   0.0334   0.0223   1.0000
  13.800   1.2264   0.03611   0.03080   0.0337   0.0221   1.0000
  13.900   1.2280   0.03689   0.03162   0.0339   0.0220   1.0000
  14.000   1.2295   0.03769   0.03247   0.0341   0.0218   1.0000
  14.100   1.2309   0.03853   0.03334   0.0343   0.0217   1.0000
  14.200   1.2321   0.03940   0.03426   0.0344   0.0215   1.0000
  14.300   1.2333   0.04030   0.03519   0.0344   0.0214   1.0000
  14.400   1.2343   0.04123   0.03616   0.0344   0.0213   1.0000
  14.500   1.2351   0.04221   0.03718   0.0343   0.0212   1.0000
  14.600   1.2357   0.04322   0.03823   0.0342   0.0211   1.0000
  14.700   1.2360   0.04429   0.03933   0.0341   0.0210   1.0000
  14.800   1.2362   0.04540   0.04048   0.0339   0.0209   1.0000
  14.900   1.2360   0.04658   0.04168   0.0337   0.0207   1.0000
  15.000   1.2353   0.04782   0.04296   0.0334   0.0206   1.0000
