  
       XFOIL         Version 6.99
  
 Calculated polar for: NACA 0012                                       
  
 1 1 Reynolds number fixed          Mach number fixed         
  
 xtrf =   1.000 (top)        1.000 (bottom)  
 Mach =   0.000     Re =     0.111 e 6     Ncrit =   9.000
  
   alpha    CL        CD       CDp       CM     Top_Xtr  Bot_Xtr
  ------ -------- --------- --------- -------- -------- --------
   0.000  -0.0000   0.01614   0.00972   0.0000   0.9807   0.9807
   0.100   0.0304   0.01612   0.00970  -0.0039   0.9766   0.9840
   0.200   0.0631   0.01606   0.00965  -0.0082   0.9732   0.9864
   0.300   0.0962   0.01598   0.00958  -0.0126   0.9705   0.9890
   0.400   0.1259   0.01587   0.00948  -0.0163   0.9653   0.9920
   0.500   0.1572   0.01572   0.00935  -0.0203   0.9608   0.9944
   0.600   0.1893   0.01552   0.00918  -0.0244   0.9565   0.9964
   0.700   0.2172   0.01532   0.00901  -0.0277   0.9489   0.9992
   0.800   0.2422   0.01511   0.00882  -0.0305   0.9416   1.0000
   0.900   0.2593   0.01493   0.00865  -0.0317   0.9303   1.0000
   1.000   0.2763   0.01474   0.00847  -0.0328   0.9197   1.0000
   1.100   0.2915   0.01455   0.00829  -0.0334   0.9087   1.0000
   1.200   0.3025   0.01441   0.00814  -0.0333   0.8954   1.0000
   1.300   0.3126   0.01427   0.00800  -0.0330   0.8823   1.0000
   1.400   0.3221   0.01414   0.00786  -0.0325   0.8697   1.0000
   1.500   0.3311   0.01401   0.00770  -0.0318   0.8577   1.0000
   1.600   0.3388   0.01392   0.00760  -0.0309   0.8438   1.0000
   1.700   0.3465   0.01385   0.00750  -0.0301   0.8301   1.0000
   1.800   0.3543   0.01377   0.00740  -0.0293   0.8169   1.0000
   1.900   0.3621   0.01371   0.00730  -0.0284   0.8041   1.0000
   2.000   0.3700   0.01365   0.00719  -0.0275   0.7914   1.0000
   2.100   0.3779   0.01362   0.00713  -0.0267   0.7772   1.0000
   2.200   0.3859   0.01360   0.00707  -0.0260   0.7633   1.0000
   2.300   0.3940   0.01358   0.00701  -0.0252   0.7497   1.0000
   2.400   0.4023   0.01357   0.00695  -0.0245   0.7364   1.0000
   2.500   0.4106   0.01357   0.00688  -0.0237   0.7233   1.0000
   2.600   0.4190   0.01358   0.00685  -0.0231   0.7090   1.0000
   2.700   0.4274   0.01360   0.00684  -0.0224   0.6946   1.0000
   2.800   0.4358   0.01363   0.00682  -0.0218   0.6804   1.0000
   2.900   0.4442   0.01366   0.00680  -0.0211   0.6665   1.0000
   3.000   0.4526   0.01371   0.00678  -0.0205   0.6526   1.0000
   3.100   0.4610   0.01376   0.00677  -0.0198   0.6389   1.0000
   3.200   0.4694   0.01382   0.00677  -0.0192   0.6245   1.0000
   3.300   0.4778   0.01388   0.00679  -0.0186   0.6097   1.0000
   3.400   0.4862   0.01395   0.00681  -0.0180   0.5950   1.0000
   3.500   0.4946   0.01403   0.00684  -0.0174   0.5805   1.0000
   3.600   0.5029   0.01411   0.00687  -0.0167   0.5660   1.0000
   3.700   0.5112   0.01420   0.00689  -0.0161   0.5515   1.0000
   3.800   0.5195   0.01430   0.00692  -0.0155   0.5371   1.0000
   3.900   0.5277   0.01441   0.00696  -0.0149   0.5227   1.0000
   4.000   0.5358   0.01452   0.00701  -0.0143   0.5075   1.0000
   4.100   0.5440   0.01463   0.00707  -0.0136   0.4921   1.0000
   4.200   0.5521   0.01475   0.00714  -0.0130   0.4768   1.0000
   4.300   0.5601   0.01488   0.00722  -0.0124   0.4614   1.0000
   4.400   0.5680   0.01501   0.00730  -0.0118   0.4459   1.0000
   4.500   0.5759   0.01516   0.00738  -0.0111   0.4303   1.0000
   4.600   0.5838   0.01531   0.00747  -0.0105   0.4147   1.0000
   4.700   0.5915   0.01547   0.00756  -0.0099   0.3989   1.0000
   4.800   0.5992   0.01565   0.00767  -0.0092   0.3830   1.0000
   4.900   0.6068   0.01583   0.00778  -0.0086   0.3671   1.0000
   5.000   0.6143   0.01603   0.00790  -0.0079   0.3511   1.0000
   5.100   0.6218   0.01624   0.00803  -0.0072   0.3351   1.0000
   5.200   0.6292   0.01646   0.00819  -0.0066   0.3193   1.0000
   5.300   0.6365   0.01670   0.00834  -0.0059   0.3037   1.0000
   5.400   0.6437   0.01696   0.00851  -0.0052   0.2884   1.0000
   5.500   0.6509   0.01723   0.00869  -0.0045   0.2737   1.0000
   5.600   0.6579   0.01753   0.00888  -0.0039   0.2598   1.0000
   5.700   0.6652   0.01781   0.00910  -0.0032   0.2459   1.0000
   5.800   0.6725   0.01810   0.00934  -0.0025   0.2325   1.0000
   5.900   0.6798   0.01842   0.00959  -0.0019   0.2202   1.0000
   6.000   0.6869   0.01877   0.00985  -0.0012   0.2095   1.0000
   6.100   0.6941   0.01910   0.01011  -0.0006   0.1994   1.0000
   6.200   0.7016   0.01943   0.01042   0.0001   0.1894   1.0000
   6.300   0.7087   0.01984   0.01069   0.0007   0.1815   1.0000
   6.400   0.7165   0.02013   0.01102   0.0013   0.1728   1.0000
   6.500   0.7237   0.02058   0.01133   0.0019   0.1662   1.0000
   6.600   0.7316   0.02088   0.01169   0.0026   0.1588   1.0000
   6.700   0.7391   0.02129   0.01198   0.0031   0.1530   1.0000
   6.800   0.7471   0.02167   0.01240   0.0037   0.1470   1.0000
   6.900   0.7550   0.02202   0.01273   0.0043   0.1417   1.0000
   7.000   0.7629   0.02259   0.01315   0.0047   0.1372   1.0000
   7.100   0.7710   0.02289   0.01358   0.0053   0.1323   1.0000
   7.200   0.7791   0.02325   0.01393   0.0059   0.1279   1.0000
   7.300   0.7874   0.02375   0.01431   0.0063   0.1242   1.0000
   7.400   0.7957   0.02427   0.01488   0.0068   0.1207   1.0000
   7.500   0.8039   0.02465   0.01534   0.0073   0.1169   1.0000
   7.600   0.8122   0.02504   0.01571   0.0078   0.1136   1.0000
   7.700   0.8209   0.02557   0.01613   0.0081   0.1106   1.0000
   7.800   0.8296   0.02623   0.01681   0.0085   0.1079   1.0000
   7.900   0.8378   0.02668   0.01740   0.0090   0.1053   1.0000
   8.000   0.8460   0.02714   0.01792   0.0095   0.1026   1.0000
   8.100   0.8544   0.02759   0.01836   0.0100   0.1001   1.0000
   8.200   0.8633   0.02813   0.01882   0.0102   0.0979   1.0000
   8.300   0.8722   0.02905   0.01969   0.0104   0.0957   1.0000
   8.400   0.8796   0.02953   0.02035   0.0111   0.0939   1.0000
   8.500   0.8875   0.03013   0.02107   0.0117   0.0920   1.0000
   8.600   0.8955   0.03072   0.02174   0.0122   0.0902   1.0000
   8.700   0.9033   0.03127   0.02234   0.0126   0.0885   1.0000
   8.800   0.9115   0.03181   0.02288   0.0130   0.0868   1.0000
   8.900   0.9203   0.03252   0.02353   0.0132   0.0852   1.0000
   9.000   0.9282   0.03370   0.02471   0.0134   0.0837   1.0000
   9.100   0.9337   0.03430   0.02553   0.0143   0.0825   1.0000
   9.200   0.9394   0.03506   0.02647   0.0151   0.0813   1.0000
   9.300   0.9452   0.03593   0.02750   0.0158   0.0803   1.0000
   9.400   0.9509   0.03680   0.02851   0.0165   0.0793   1.0000
   9.500   0.9568   0.03765   0.02947   0.0172   0.0782   1.0000
   9.600   0.9630   0.03842   0.03033   0.0177   0.0772   1.0000
   9.700   0.9702   0.03910   0.03103   0.0181   0.0761   1.0000
   9.800   0.9773   0.03979   0.03173   0.0185   0.0750   1.0000
   9.900   0.9844   0.04064   0.03256   0.0188   0.0739   1.0000
  10.000   0.9906   0.04220   0.03411   0.0189   0.0729   1.0000
