  
       XFOIL         Version 6.99
  
 Calculated polar for: NACA 0012                                       
  
 1 1 Reynolds number fixed          Mach number fixed         
  
 xtrf =   1.000 (top)        1.000 (bottom)  
 Mach =   0.000     Re =     0.064 e 6     Ncrit =   9.000
  
   alpha    CL        CD       CDp       CM     Top_Xtr  Bot_Xtr
  ------ -------- --------- --------- -------- -------- --------
   0.000   0.0000   0.01917   0.01060  -0.0000   1.0000   1.0000
   0.100  -0.0080   0.01918   0.01061   0.0023   1.0000   1.0000
   0.200  -0.0157   0.01921   0.01063   0.0045   1.0000   1.0000
   0.300  -0.0226   0.01925   0.01067   0.0066   1.0000   1.0000
   0.400  -0.0285   0.01932   0.01072   0.0086   1.0000   1.0000
   0.500  -0.0333   0.01940   0.01079   0.0103   1.0000   1.0000
   0.600  -0.0369   0.01951   0.01089   0.0119   1.0000   1.0000
   0.700  -0.0393   0.01964   0.01100   0.0133   1.0000   1.0000
   0.800  -0.0192   0.01988   0.01124   0.0108   0.9952   1.0000
   0.900   0.0121   0.02013   0.01151   0.0064   0.9871   1.0000
   1.000   0.0430   0.02035   0.01176   0.0021   0.9791   1.0000
   1.100   0.0754   0.02054   0.01198  -0.0023   0.9712   1.0000
   1.200   0.1041   0.02066   0.01213  -0.0060   0.9615   1.0000
   1.300   0.1374   0.02075   0.01228  -0.0104   0.9535   1.0000
   1.400   0.1679   0.02078   0.01236  -0.0142   0.9438   1.0000
   1.500   0.1989   0.02078   0.01241  -0.0180   0.9343   1.0000
   1.600   0.2377   0.02067   0.01238  -0.0230   0.9262   1.0000
   1.700   0.2648   0.02056   0.01234  -0.0259   0.9150   1.0000
   1.800   0.2980   0.02034   0.01218  -0.0296   0.9059   1.0000
   1.900   0.3223   0.02015   0.01205  -0.0317   0.8941   1.0000
   2.000   0.3422   0.01999   0.01194  -0.0329   0.8814   1.0000
   2.100   0.3627   0.01978   0.01178  -0.0341   0.8694   1.0000
   2.200   0.3833   0.01951   0.01155  -0.0350   0.8582   1.0000
   2.300   0.3948   0.01941   0.01147  -0.0346   0.8441   1.0000
   2.400   0.4061   0.01931   0.01138  -0.0341   0.8303   1.0000
   2.500   0.4171   0.01920   0.01127  -0.0334   0.8169   1.0000
   2.600   0.4280   0.01907   0.01114  -0.0327   0.8041   1.0000
   2.700   0.4384   0.01894   0.01101  -0.0318   0.7914   1.0000
   2.800   0.4463   0.01891   0.01097  -0.0307   0.7768   1.0000
   2.900   0.4543   0.01888   0.01093  -0.0295   0.7625   1.0000
   3.000   0.4624   0.01886   0.01089  -0.0284   0.7483   1.0000
   3.100   0.4706   0.01883   0.01083  -0.0273   0.7344   1.0000
   3.200   0.4789   0.01880   0.01077  -0.0262   0.7206   1.0000
   3.300   0.4873   0.01878   0.01069  -0.0250   0.7069   1.0000
   3.400   0.4948   0.01881   0.01070  -0.0239   0.6918   1.0000
   3.500   0.5024   0.01886   0.01072  -0.0228   0.6765   1.0000
   3.600   0.5101   0.01891   0.01074  -0.0217   0.6612   1.0000
   3.700   0.5178   0.01898   0.01075  -0.0207   0.6459   1.0000
   3.800   0.5256   0.01905   0.01077  -0.0196   0.6304   1.0000
   3.900   0.5333   0.01913   0.01080  -0.0186   0.6149   1.0000
   4.000   0.5411   0.01922   0.01083  -0.0176   0.5992   1.0000
   4.100   0.5488   0.01932   0.01087  -0.0166   0.5833   1.0000
   4.200   0.5565   0.01943   0.01092  -0.0156   0.5672   1.0000
   4.300   0.5642   0.01956   0.01098  -0.0146   0.5509   1.0000
   4.400   0.5718   0.01970   0.01106  -0.0137   0.5344   1.0000
   4.500   0.5794   0.01985   0.01114  -0.0127   0.5176   1.0000
   4.600   0.5869   0.02001   0.01123  -0.0118   0.5007   1.0000
   4.700   0.5943   0.02019   0.01133  -0.0109   0.4836   1.0000
   4.800   0.6016   0.02038   0.01144  -0.0100   0.4663   1.0000
   4.900   0.6089   0.02059   0.01157  -0.0091   0.4490   1.0000
   5.000   0.6162   0.02081   0.01171  -0.0082   0.4316   1.0000
   5.100   0.6234   0.02106   0.01186  -0.0073   0.4142   1.0000
   5.200   0.6306   0.02132   0.01203  -0.0064   0.3969   1.0000
   5.300   0.6377   0.02160   0.01223  -0.0055   0.3799   1.0000
   5.400   0.6449   0.02190   0.01243  -0.0047   0.3631   1.0000
   5.500   0.6520   0.02222   0.01266  -0.0039   0.3467   1.0000
   5.600   0.6591   0.02257   0.01292  -0.0031   0.3309   1.0000
   5.700   0.6663   0.02293   0.01320  -0.0023   0.3156   1.0000
   5.800   0.6735   0.02331   0.01350  -0.0015   0.3012   1.0000
   5.900   0.6809   0.02372   0.01381  -0.0008   0.2879   1.0000
   6.000   0.6887   0.02414   0.01407  -0.0001   0.2756   1.0000
   6.100   0.6959   0.02454   0.01446   0.0006   0.2631   1.0000
   6.200   0.7033   0.02501   0.01493   0.0013   0.2516   1.0000
   6.300   0.7114   0.02550   0.01531   0.0019   0.2417   1.0000
   6.400   0.7191   0.02594   0.01571   0.0025   0.2318   1.0000
   6.500   0.7268   0.02647   0.01625   0.0032   0.2226   1.0000
   6.600   0.7353   0.02695   0.01660   0.0037   0.2147   1.0000
   6.700   0.7429   0.02752   0.01726   0.0043   0.2068   1.0000
   6.800   0.7514   0.02800   0.01764   0.0048   0.1998   1.0000
   6.900   0.7593   0.02864   0.01832   0.0054   0.1931   1.0000
   7.000   0.7674   0.02918   0.01888   0.0059   0.1869   1.0000
   7.100   0.7768   0.02984   0.01938   0.0062   0.1816   1.0000
   7.200   0.7836   0.03046   0.02022   0.0070   0.1759   1.0000
   7.300   0.7919   0.03101   0.02075   0.0074   0.1708   1.0000
   7.400   0.8016   0.03178   0.02136   0.0076   0.1666   1.0000
   7.500   0.8079   0.03250   0.02235   0.0085   0.1624   1.0000
   7.600   0.8155   0.03316   0.02308   0.0090   0.1581   1.0000
   7.700   0.8243   0.03375   0.02360   0.0094   0.1542   1.0000
   7.800   0.8327   0.03468   0.02449   0.0097   0.1510   1.0000
   7.900   0.8382   0.03556   0.02564   0.0106   0.1481   1.0000
   8.000   0.8447   0.03641   0.02665   0.0113   0.1451   1.0000
   8.100   0.8526   0.03713   0.02740   0.0118   0.1420   1.0000
   8.200   0.8614   0.03782   0.02801   0.0120   0.1391   1.0000
   8.300   0.8687   0.03893   0.02911   0.0124   0.1367   1.0000
   8.400   0.8721   0.03998   0.03047   0.0134   0.1348   1.0000
   8.500   0.8759   0.04113   0.03185   0.0143   0.1330   1.0000
   8.600   0.8800   0.04229   0.03319   0.0151   0.1314   1.0000
   8.700   0.8845   0.04338   0.03442   0.0159   0.1296   1.0000
   8.800   0.8902   0.04433   0.03544   0.0164   0.1277   1.0000
   8.900   0.8993   0.04503   0.03607   0.0166   0.1254   1.0000
   9.000   0.9086   0.04616   0.03707   0.0166   0.1234   1.0000
   9.100   0.9096   0.04758   0.03869   0.0176   0.1224   1.0000
   9.200   0.9090   0.04902   0.04040   0.0187   0.1216   1.0000
   9.300   0.9083   0.05058   0.04218   0.0196   0.1211   1.0000
   9.400   0.9072   0.05223   0.04403   0.0205   0.1207   1.0000
   9.500   0.9054   0.05393   0.04594   0.0214   0.1204   1.0000
   9.600   0.9028   0.05569   0.04787   0.0222   0.1202   1.0000
   9.700   0.8992   0.05750   0.04985   0.0230   0.1200   1.0000
   9.800   0.8947   0.05936   0.05186   0.0238   0.1199   1.0000
   9.900   0.8887   0.06129   0.05394   0.0245   0.1200   1.0000
  10.000   0.8818   0.06328   0.05606   0.0251   0.1201   1.0000
