  
       XFOIL         Version 6.99
  
 Calculated polar for: NACA 0012                                       
  
 1 1 Reynolds number fixed          Mach number fixed         
  
 xtrf =   1.000 (top)        1.000 (bottom)  
 Mach =   0.000     Re =     0.017 e 6     Ncrit =   9.000
  
   alpha    CL        CD       CDp       CM     Top_Xtr  Bot_Xtr
  ------ -------- --------- --------- -------- -------- --------
   0.000   0.0000   0.03123   0.01390  -0.0000   1.0000   1.0000
   0.100   0.0013   0.03124   0.01390   0.0011   1.0000   1.0000
   0.200   0.0026   0.03125   0.01392   0.0023   1.0000   1.0000
   0.300   0.0039   0.03128   0.01394   0.0034   1.0000   1.0000
   0.400   0.0052   0.03133   0.01398   0.0045   1.0000   1.0000
   0.500   0.0067   0.03138   0.01403   0.0056   1.0000   1.0000
   0.600   0.0082   0.03145   0.01409   0.0066   1.0000   1.0000
   0.700   0.0097   0.03153   0.01417   0.0077   1.0000   1.0000
   0.800   0.0114   0.03162   0.01425   0.0087   1.0000   1.0000
   0.900   0.0130   0.03173   0.01434   0.0097   1.0000   1.0000
   1.000   0.0148   0.03184   0.01445   0.0107   1.0000   1.0000
   1.100   0.0168   0.03197   0.01457   0.0116   1.0000   1.0000
   1.200   0.0188   0.03212   0.01471   0.0125   1.0000   1.0000
   1.300   0.0210   0.03227   0.01485   0.0133   1.0000   1.0000
   1.400   0.0234   0.03244   0.01502   0.0141   1.0000   1.0000
   1.500   0.0259   0.03263   0.01519   0.0149   1.0000   1.0000
   1.600   0.0286   0.03282   0.01538   0.0156   1.0000   1.0000
   1.700   0.0314   0.03303   0.01559   0.0162   1.0000   1.0000
   1.800   0.0343   0.03326   0.01581   0.0169   1.0000   1.0000
   1.900   0.0374   0.03350   0.01605   0.0174   1.0000   1.0000
   2.000   0.0406   0.03375   0.01631   0.0179   1.0000   1.0000
   2.100   0.0438   0.03402   0.01659   0.0184   1.0000   1.0000
   2.200   0.0472   0.03430   0.01687   0.0188   1.0000   1.0000
   2.300   0.0506   0.03460   0.01718   0.0192   1.0000   1.0000
   2.400   0.0541   0.03491   0.01750   0.0196   1.0000   1.0000
   2.500   0.0576   0.03524   0.01784   0.0199   1.0000   1.0000
   2.600   0.0612   0.03559   0.01820   0.0201   1.0000   1.0000
   2.700   0.0649   0.03595   0.01857   0.0203   1.0000   1.0000
   2.800   0.0686   0.03633   0.01896   0.0205   1.0000   1.0000
   2.900   0.0723   0.03673   0.01938   0.0207   1.0000   1.0000
   3.000   0.0760   0.03714   0.01981   0.0208   1.0000   1.0000
   3.100   0.0798   0.03757   0.02025   0.0208   1.0000   1.0000
   3.200   0.0835   0.03801   0.02072   0.0209   1.0000   1.0000
   3.300   0.0873   0.03848   0.02122   0.0209   1.0000   1.0000
   3.400   0.0910   0.03896   0.02172   0.0209   1.0000   1.0000
   3.500   0.0948   0.03946   0.02224   0.0208   1.0000   1.0000
   3.600   0.0986   0.03997   0.02279   0.0207   1.0000   1.0000
   3.700   0.1024   0.04051   0.02335   0.0206   1.0000   1.0000
   3.800   0.1061   0.04106   0.02393   0.0204   1.0000   1.0000
   3.900   0.1099   0.04163   0.02453   0.0203   1.0000   1.0000
   4.000   0.1136   0.04223   0.02515   0.0201   1.0000   1.0000
   4.100   0.1174   0.04283   0.02580   0.0198   1.0000   1.0000
   4.200   0.1211   0.04346   0.02646   0.0196   1.0000   1.0000
   4.300   0.1248   0.04411   0.02714   0.0193   1.0000   1.0000
   4.400   0.1285   0.04478   0.02784   0.0190   1.0000   1.0000
   4.500   0.1321   0.04546   0.02856   0.0186   1.0000   1.0000
   4.700   0.1394   0.04689   0.03007   0.0179   1.0000   1.0000
   4.800   0.1430   0.04763   0.03085   0.0175   1.0000   1.0000
   4.900   0.1466   0.04839   0.03165   0.0171   1.0000   1.0000
   5.000   0.1501   0.04917   0.03247   0.0167   1.0000   1.0000
   5.100   0.1536   0.04997   0.03330   0.0162   1.0000   1.0000
   5.200   0.1571   0.05078   0.03416   0.0158   1.0000   1.0000
   5.300   0.1605   0.05162   0.03503   0.0153   1.0000   1.0000
   5.400   0.1640   0.05247   0.03592   0.0148   1.0000   1.0000
   5.500   0.1674   0.05334   0.03684   0.0143   1.0000   1.0000
   5.600   0.2012   0.05616   0.03986   0.0071   0.9802   1.0000
   5.700   0.2436   0.05940   0.04338  -0.0015   0.9457   1.0000
   5.800   0.2734   0.06183   0.04600  -0.0070   0.9177   1.0000
   5.900   0.3045   0.06433   0.04870  -0.0122   0.8896   1.0000
   6.000   0.3198   0.06592   0.05041  -0.0144   0.8697   1.0000
   6.200   0.3518   0.06929   0.05402  -0.0187   0.8310   1.0000
   6.300   0.3757   0.07135   0.05627  -0.0217   0.8059   1.0000
   6.400   0.3887   0.07295   0.05797  -0.0230   0.7895   1.0000
   6.500   0.4006   0.07447   0.05958  -0.0241   0.7725   1.0000
   6.600   0.4129   0.07606   0.06126  -0.0251   0.7563   1.0000
   6.700   0.4103   0.07708   0.06229  -0.0246   0.7509   1.0000
   6.800   0.4213   0.07868   0.06397  -0.0255   0.7363   1.0000
   6.900   0.4328   0.08030   0.06567  -0.0263   0.7211   1.0000
   7.000   0.4319   0.08149   0.06687  -0.0260   0.7160   1.0000
   7.100   0.4423   0.08318   0.06863  -0.0268   0.7037   1.0000
   7.200   0.4420   0.08442   0.06990  -0.0267   0.6986   1.0000
   7.300   0.4516   0.08610   0.07164  -0.0273   0.6866   1.0000
   7.400   0.4507   0.08740   0.07295  -0.0272   0.6836   1.0000
   7.500   0.4530   0.08888   0.07448  -0.0275   0.6798   1.0000
   7.600   0.4615   0.09066   0.07630  -0.0282   0.6709   1.0000
   7.700   0.4604   0.09202   0.07767  -0.0282   0.6697   1.0000
   7.800   0.4600   0.09343   0.07908  -0.0284   0.6688   1.0000
   7.900   0.4603   0.09492   0.08059  -0.0287   0.6690   1.0000
   8.000   0.4619   0.09659   0.08227  -0.0292   0.6708   1.0000
   8.100   0.4648   0.09839   0.08409  -0.0300   0.6725   1.0000
   8.300   0.4489   0.10089   0.08653  -0.0307   0.7055   1.0000
   8.800   0.2746   0.09044   0.07522  -0.0054   1.0000   1.0000
   8.900   0.2780   0.09175   0.07655  -0.0060   1.0000   1.0000
   9.000   0.2813   0.09306   0.07790  -0.0066   1.0000   1.0000
   9.100   0.2846   0.09439   0.07925  -0.0072   1.0000   1.0000
   9.200   0.2880   0.09571   0.08061  -0.0078   1.0000   1.0000
   9.300   0.2914   0.09705   0.08197  -0.0084   1.0000   1.0000
   9.400   0.2947   0.09839   0.08333  -0.0090   1.0000   1.0000
   9.500   0.2981   0.09973   0.08471  -0.0096   1.0000   1.0000
   9.600   0.3016   0.10108   0.08608  -0.0102   1.0000   1.0000
   9.700   0.3050   0.10243   0.08746  -0.0108   1.0000   1.0000
   9.800   0.3084   0.10379   0.08885  -0.0114   1.0000   1.0000
   9.900   0.3196   0.10637   0.09149  -0.0139   0.9951   1.0000
  10.000   0.3402   0.11052   0.09575  -0.0187   0.9810   1.0000
