  
       XFOIL         Version 6.99
  
 Calculated polar for: NACA 0012                                       
  
 1 1 Reynolds number fixed          Mach number fixed         
  
 xtrf =   1.000 (top)        1.000 (bottom)  
 Mach =   0.000     Re =     0.134 e 6     Ncrit =   9.000
  
   alpha    CL        CD       CDp       CM     Top_Xtr  Bot_Xtr
  ------ -------- --------- --------- -------- -------- --------
   0.000  -0.0000   0.01420   0.00831   0.0000   0.9501   0.9501
   0.100   0.0246   0.01418   0.00830  -0.0025   0.9461   0.9547
   0.200   0.0530   0.01414   0.00826  -0.0058   0.9432   0.9570
   0.300   0.0824   0.01407   0.00820  -0.0092   0.9404   0.9587
   0.400   0.1060   0.01401   0.00815  -0.0115   0.9336   0.9618
   0.500   0.1304   0.01392   0.00806  -0.0139   0.9281   0.9652
   0.600   0.1515   0.01383   0.00798  -0.0157   0.9220   0.9698
   0.700   0.1747   0.01371   0.00787  -0.0179   0.9137   0.9724
   0.800   0.1981   0.01357   0.00774  -0.0200   0.9068   0.9752
   0.900   0.2173   0.01346   0.00764  -0.0214   0.8963   0.9794
   1.000   0.2361   0.01335   0.00752  -0.0227   0.8866   0.9836
   1.100   0.2566   0.01320   0.00736  -0.0243   0.8761   0.9867
   1.200   0.2751   0.01308   0.00725  -0.0256   0.8636   0.9907
   1.300   0.2932   0.01296   0.00712  -0.0268   0.8512   0.9947
   1.400   0.3119   0.01282   0.00696  -0.0280   0.8385   0.9981
   1.500   0.3247   0.01273   0.00683  -0.0282   0.8253   1.0000
   1.600   0.3322   0.01266   0.00673  -0.0275   0.8114   1.0000
   1.700   0.3399   0.01260   0.00663  -0.0268   0.7978   1.0000
   1.800   0.3477   0.01255   0.00654  -0.0260   0.7846   1.0000
   1.900   0.3557   0.01251   0.00645  -0.0253   0.7717   1.0000
   2.000   0.3638   0.01248   0.00636  -0.0246   0.7584   1.0000
   2.100   0.3720   0.01246   0.00630  -0.0240   0.7443   1.0000
   2.200   0.3804   0.01245   0.00625  -0.0235   0.7305   1.0000
   2.300   0.3889   0.01245   0.00619  -0.0229   0.7169   1.0000
   2.400   0.3975   0.01246   0.00614  -0.0223   0.7036   1.0000
   2.600   0.4148   0.01250   0.00606  -0.0212   0.6759   1.0000
   2.700   0.4235   0.01252   0.00605  -0.0207   0.6617   1.0000
   2.800   0.4323   0.01256   0.00603  -0.0202   0.6476   1.0000
   2.900   0.4410   0.01260   0.00601  -0.0197   0.6338   1.0000
   3.000   0.4498   0.01265   0.00600  -0.0192   0.6200   1.0000
   3.100   0.4585   0.01271   0.00598  -0.0187   0.6063   1.0000
   3.200   0.4672   0.01276   0.00599  -0.0182   0.5918   1.0000
   3.300   0.4759   0.01282   0.00601  -0.0177   0.5774   1.0000
   3.400   0.4844   0.01289   0.00602  -0.0172   0.5630   1.0000
   3.500   0.4930   0.01297   0.00605  -0.0167   0.5488   1.0000
   3.600   0.5015   0.01306   0.00608  -0.0162   0.5347   1.0000
   3.700   0.5100   0.01315   0.00610  -0.0157   0.5205   1.0000
   3.900   0.5268   0.01334   0.00618  -0.0146   0.4915   1.0000
   4.000   0.5352   0.01345   0.00623  -0.0141   0.4766   1.0000
   4.100   0.5435   0.01355   0.00629  -0.0135   0.4617   1.0000
   4.200   0.5517   0.01367   0.00635  -0.0130   0.4469   1.0000
   4.300   0.5599   0.01379   0.00643  -0.0125   0.4321   1.0000
   4.400   0.5680   0.01393   0.00650  -0.0119   0.4171   1.0000
   4.500   0.5761   0.01407   0.00657  -0.0113   0.4021   1.0000
   4.600   0.5840   0.01422   0.00665  -0.0107   0.3871   1.0000
   4.700   0.5919   0.01438   0.00674  -0.0102   0.3719   1.0000
   4.800   0.5997   0.01454   0.00684  -0.0096   0.3566   1.0000
   5.000   0.6152   0.01490   0.00706  -0.0084   0.3258   1.0000
   5.100   0.6228   0.01510   0.00718  -0.0078   0.3102   1.0000
   5.200   0.6304   0.01530   0.00733  -0.0072   0.2948   1.0000
   5.300   0.6380   0.01552   0.00748  -0.0066   0.2797   1.0000
   5.400   0.6455   0.01575   0.00764  -0.0059   0.2649   1.0000
   5.500   0.6529   0.01599   0.00781  -0.0053   0.2505   1.0000
   5.600   0.6603   0.01625   0.00800  -0.0047   0.2368   1.0000
   5.700   0.6675   0.01653   0.00819  -0.0040   0.2242   1.0000
   5.800   0.6744   0.01685   0.00839  -0.0034   0.2128   1.0000
   5.900   0.6820   0.01710   0.00862  -0.0027   0.2008   1.0000
   6.000   0.6894   0.01739   0.00886  -0.0021   0.1901   1.0000
   6.100   0.6963   0.01775   0.00910  -0.0014   0.1813   1.0000
   6.200   0.7040   0.01800   0.00937  -0.0008   0.1718   1.0000
   6.300   0.7111   0.01837   0.00965  -0.0002   0.1642   1.0000
   6.400   0.7188   0.01864   0.00991   0.0004   0.1564   1.0000
   6.500   0.7258   0.01903   0.01021   0.0011   0.1502   1.0000
   6.600   0.7338   0.01930   0.01050   0.0017   0.1435   1.0000
   6.700   0.7408   0.01969   0.01079   0.0023   0.1383   1.0000
   6.800   0.7487   0.02003   0.01115   0.0029   0.1329   1.0000
   6.900   0.7565   0.02032   0.01143   0.0035   0.1279   1.0000
   7.000   0.7637   0.02078   0.01179   0.0041   0.1237   1.0000
   7.100   0.7719   0.02112   0.01219   0.0046   0.1195   1.0000
   7.200   0.7799   0.02143   0.01252   0.0052   0.1155   1.0000
   7.300   0.7877   0.02178   0.01282   0.0057   0.1120   1.0000
   7.400   0.7956   0.02238   0.01332   0.0062   0.1087   1.0000
   7.500   0.8038   0.02266   0.01371   0.0068   0.1055   1.0000
   7.600   0.8120   0.02300   0.01408   0.0073   0.1023   1.0000
   7.700   0.8202   0.02338   0.01442   0.0077   0.0997   1.0000
   7.800   0.8286   0.02394   0.01488   0.0081   0.0972   1.0000
   7.900   0.8370   0.02449   0.01548   0.0085   0.0948   1.0000
   8.000   0.8452   0.02484   0.01593   0.0091   0.0923   1.0000
   8.100   0.8534   0.02522   0.01635   0.0096   0.0899   1.0000
   8.200   0.8618   0.02561   0.01673   0.0100   0.0878   1.0000
   8.300   0.8704   0.02610   0.01716   0.0103   0.0860   1.0000
   8.400   0.8798   0.02711   0.01807   0.0104   0.0840   1.0000
   8.500   0.8875   0.02747   0.01857   0.0110   0.0826   1.0000
   8.600   0.8954   0.02791   0.01913   0.0116   0.0809   1.0000
   8.700   0.9034   0.02838   0.01967   0.0121   0.0791   1.0000
   8.800   0.9113   0.02882   0.02018   0.0126   0.0774   1.0000
   8.900   0.9196   0.02928   0.02063   0.0130   0.0759   1.0000
   9.000   0.9281   0.02983   0.02115   0.0132   0.0746   1.0000
   9.100   0.9372   0.03077   0.02203   0.0134   0.0733   1.0000
   9.200   0.9446   0.03173   0.02308   0.0138   0.0723   1.0000
   9.300   0.9510   0.03229   0.02382   0.0146   0.0714   1.0000
   9.400   0.9574   0.03294   0.02462   0.0153   0.0703   1.0000
   9.500   0.9638   0.03360   0.02540   0.0159   0.0691   1.0000
   9.600   0.9705   0.03423   0.02612   0.0165   0.0680   1.0000
   9.700   0.9776   0.03481   0.02676   0.0169   0.0668   1.0000
   9.800   0.9848   0.03539   0.02738   0.0174   0.0658   1.0000
   9.900   0.9918   0.03601   0.02803   0.0178   0.0649   1.0000
  10.000   0.9990   0.03677   0.02880   0.0181   0.0641   1.0000
  10.100   1.0063   0.03782   0.02985   0.0184   0.0634   1.0000
  10.200   1.0121   0.03949   0.03157   0.0187   0.0627   1.0000
  10.300   1.0147   0.04041   0.03267   0.0197   0.0624   1.0000
  10.400   1.0167   0.04135   0.03382   0.0207   0.0620   1.0000
  10.500   1.0180   0.04238   0.03506   0.0217   0.0615   1.0000
  10.600   1.0188   0.04349   0.03635   0.0228   0.0611   1.0000
  10.700   1.0190   0.04465   0.03769   0.0238   0.0606   1.0000
  10.800   1.0188   0.04584   0.03906   0.0248   0.0601   1.0000
  10.900   1.0179   0.04706   0.04044   0.0258   0.0597   1.0000
  11.000   1.0165   0.04831   0.04183   0.0268   0.0593   1.0000
  11.100   1.0144   0.04957   0.04324   0.0278   0.0589   1.0000
  11.200   1.0115   0.05087   0.04466   0.0287   0.0586   1.0000
  11.300   1.0076   0.05223   0.04615   0.0297   0.0583   1.0000
  11.400   1.0023   0.05365   0.04770   0.0307   0.0582   1.0000
  11.500   0.9949   0.05507   0.04924   0.0319   0.0581   1.0000
  11.600   0.9858   0.05656   0.05084   0.0331   0.0582   1.0000
  11.700   0.9754   0.05820   0.05259   0.0341   0.0583   1.0000
  11.800   0.9641   0.05999   0.05449   0.0347   0.0584   1.0000
  11.900   0.9520   0.06198   0.05659   0.0350   0.0586   1.0000
  12.000   0.9390   0.06418   0.05889   0.0348   0.0588   1.0000
  12.100   0.9253   0.06664   0.06146   0.0341   0.0591   1.0000
  12.200   0.9108   0.06940   0.06431   0.0329   0.0594   1.0000
  12.300   0.8955   0.07252   0.06752   0.0311   0.0598   1.0000
  12.400   0.8801   0.07598   0.07105   0.0289   0.0602   1.0000
  12.500   0.8647   0.07979   0.07492   0.0263   0.0607   1.0000
  12.600   0.8500   0.08381   0.07899   0.0235   0.0611   1.0000
  12.700   0.8365   0.08792   0.08315   0.0208   0.0616   1.0000
  12.800   0.8255   0.09179   0.08703   0.0184   0.0620   1.0000
  12.900   0.8168   0.09536   0.09062   0.0164   0.0623   1.0000
  13.000   0.8103   0.09861   0.09387   0.0149   0.0625   1.0000
  13.200   0.4899   0.13781   0.13328  -0.0011   0.1142   1.0000
  13.300   0.4927   0.13884   0.13432  -0.0011   0.1131   1.0000
  13.400   0.4974   0.13989   0.13537  -0.0009   0.1121   1.0000
  13.500   0.5053   0.14103   0.13653  -0.0004   0.1112   1.0000
  13.600   0.5194   0.14230   0.13781   0.0008   0.1102   1.0000
  13.700   0.5416   0.14486   0.14039   0.0031   0.1092   1.0000
  13.800   0.5290   0.14619   0.14170   0.0013   0.1090   1.0000
  13.900   0.5127   0.14691   0.14241  -0.0007   0.1086   1.0000
  14.000   0.4934   0.14671   0.14220  -0.0024   0.1078   1.0000
  14.100   0.4813   0.14690   0.14239  -0.0036   0.1060   1.0000
  14.200   0.4782   0.14767   0.14316  -0.0042   0.1040   1.0000
  14.300   0.4783   0.14851   0.14400  -0.0046   0.1023   1.0000
  14.400   0.4802   0.14936   0.14486  -0.0047   0.1008   1.0000
  14.500   0.4842   0.15024   0.14575  -0.0046   0.0994   1.0000
  14.600   0.4908   0.15130   0.14681  -0.0043   0.0983   1.0000
  14.700   0.5009   0.15281   0.14834  -0.0037   0.0975   1.0000
  14.800   0.5188   0.15532   0.15087  -0.0025   0.0967   1.0000
  14.900   0.5320   0.15855   0.15410  -0.0016   0.0962   1.0000
  15.000   0.5213   0.15893   0.15447  -0.0030   0.0960   1.0000
