  
       XFOIL         Version 6.99
  
 Calculated polar for: NACA 0012                                       
  
 1 1 Reynolds number fixed          Mach number fixed         
  
 xtrf =   1.000 (top)        1.000 (bottom)  
 Mach =   0.000     Re =     0.099 e 6     Ncrit =   9.000
  
   alpha    CL        CD       CDp       CM     Top_Xtr  Bot_Xtr
  ------ -------- --------- --------- -------- -------- --------
   0.000   0.0000   0.01697   0.01018  -0.0000   1.0000   1.0000
   0.200   0.0481   0.01690   0.01011  -0.0062   0.9894   1.0000
   0.300   0.0762   0.01684   0.01006  -0.0099   0.9838   1.0000
   0.400   0.1027   0.01675   0.00998  -0.0133   0.9769   1.0000
   0.500   0.1314   0.01664   0.00989  -0.0169   0.9715   1.0000
   0.600   0.1575   0.01652   0.00978  -0.0201   0.9642   1.0000
   0.700   0.1866   0.01635   0.00965  -0.0236   0.9585   1.0000
   0.800   0.2112   0.01618   0.00950  -0.0264   0.9505   1.0000
   0.900   0.2360   0.01599   0.00933  -0.0290   0.9427   1.0000
   1.000   0.2561   0.01581   0.00918  -0.0307   0.9325   1.0000
   1.100   0.2786   0.01559   0.00898  -0.0328   0.9243   1.0000
   1.200   0.2931   0.01543   0.00884  -0.0333   0.9116   1.0000
   1.300   0.3070   0.01528   0.00869  -0.0337   0.8994   1.0000
   1.400   0.3202   0.01511   0.00853  -0.0339   0.8877   1.0000
   1.500   0.3315   0.01496   0.00837  -0.0336   0.8756   1.0000
   1.600   0.3403   0.01486   0.00826  -0.0329   0.8618   1.0000
   1.700   0.3490   0.01476   0.00815  -0.0322   0.8485   1.0000
   1.800   0.3575   0.01466   0.00804  -0.0314   0.8357   1.0000
   1.900   0.3660   0.01457   0.00791  -0.0305   0.8234   1.0000
   2.000   0.3738   0.01451   0.00782  -0.0296   0.8097   1.0000
   2.100   0.3816   0.01446   0.00775  -0.0287   0.7958   1.0000
   2.200   0.3895   0.01442   0.00768  -0.0278   0.7823   1.0000
   2.300   0.3975   0.01439   0.00760  -0.0270   0.7690   1.0000
   2.400   0.4057   0.01436   0.00752  -0.0261   0.7561   1.0000
   2.500   0.4138   0.01435   0.00747  -0.0253   0.7422   1.0000
   2.600   0.4218   0.01435   0.00744  -0.0245   0.7278   1.0000
   2.700   0.4299   0.01436   0.00742  -0.0237   0.7137   1.0000
   2.800   0.4381   0.01439   0.00739  -0.0230   0.6998   1.0000
   2.900   0.4463   0.01441   0.00737  -0.0222   0.6861   1.0000
   3.000   0.4546   0.01445   0.00733  -0.0214   0.6725   1.0000
   3.100   0.4628   0.01450   0.00733  -0.0207   0.6581   1.0000
   3.200   0.4710   0.01455   0.00734  -0.0200   0.6432   1.0000
   3.300   0.4793   0.01461   0.00736  -0.0193   0.6286   1.0000
   3.400   0.4875   0.01468   0.00737  -0.0186   0.6140   1.0000
   3.500   0.4958   0.01476   0.00740  -0.0179   0.5994   1.0000
   3.600   0.5040   0.01484   0.00742  -0.0172   0.5849   1.0000
   3.700   0.5122   0.01493   0.00744  -0.0166   0.5705   1.0000
   3.800   0.5204   0.01503   0.00746  -0.0159   0.5560   1.0000
   3.900   0.5285   0.01513   0.00751  -0.0152   0.5407   1.0000
   4.000   0.5365   0.01524   0.00757  -0.0145   0.5254   1.0000
   4.100   0.5446   0.01536   0.00763  -0.0139   0.5099   1.0000
   4.200   0.5525   0.01548   0.00770  -0.0132   0.4943   1.0000
   4.300   0.5605   0.01561   0.00778  -0.0125   0.4787   1.0000
   4.400   0.5683   0.01575   0.00786  -0.0118   0.4631   1.0000
   4.500   0.5761   0.01590   0.00794  -0.0112   0.4472   1.0000
   4.600   0.5839   0.01606   0.00803  -0.0105   0.4313   1.0000
   4.700   0.5915   0.01622   0.00813  -0.0098   0.4153   1.0000
   4.800   0.5991   0.01640   0.00823  -0.0091   0.3991   1.0000
   4.900   0.6066   0.01659   0.00835  -0.0084   0.3829   1.0000
   5.000   0.6141   0.01680   0.00848  -0.0077   0.3666   1.0000
   5.100   0.6215   0.01701   0.00862  -0.0070   0.3502   1.0000
   5.200   0.6288   0.01725   0.00878  -0.0063   0.3340   1.0000
   5.300   0.6360   0.01749   0.00894  -0.0056   0.3180   1.0000
   5.400   0.6432   0.01776   0.00912  -0.0049   0.3023   1.0000
   5.500   0.6503   0.01804   0.00931  -0.0042   0.2871   1.0000
   5.600   0.6574   0.01834   0.00951  -0.0035   0.2726   1.0000
   5.700   0.6645   0.01866   0.00972  -0.0028   0.2591   1.0000
   5.800   0.6716   0.01898   0.00996  -0.0021   0.2458   1.0000
   5.900   0.6789   0.01930   0.01024  -0.0015   0.2327   1.0000
   6.000   0.6862   0.01965   0.01052  -0.0008   0.2209   1.0000
   6.100   0.6934   0.02003   0.01080  -0.0001   0.2110   1.0000
   6.200   0.7009   0.02036   0.01110   0.0005   0.2008   1.0000
   6.300   0.7084   0.02075   0.01145   0.0011   0.1916   1.0000
   6.400   0.7158   0.02113   0.01172   0.0017   0.1837   1.0000
   6.500   0.7236   0.02151   0.01213   0.0024   0.1756   1.0000
   6.600   0.7312   0.02191   0.01242   0.0029   0.1689   1.0000
   6.700   0.7391   0.02234   0.01286   0.0035   0.1622   1.0000
   6.800   0.7470   0.02270   0.01319   0.0041   0.1560   1.0000
   6.900   0.7551   0.02324   0.01361   0.0045   0.1509   1.0000
   7.000   0.7632   0.02360   0.01409   0.0051   0.1453   1.0000
   7.100   0.7713   0.02400   0.01443   0.0056   0.1406   1.0000
   7.200   0.7799   0.02461   0.01493   0.0060   0.1364   1.0000
   7.300   0.7879   0.02499   0.01545   0.0066   0.1319   1.0000
   7.400   0.7962   0.02541   0.01586   0.0071   0.1279   1.0000
   7.500   0.8050   0.02593   0.01627   0.0074   0.1246   1.0000
   7.600   0.8136   0.02659   0.01695   0.0078   0.1213   1.0000
   7.700   0.8216   0.02703   0.01752   0.0084   0.1179   1.0000
   7.800   0.8298   0.02748   0.01800   0.0089   0.1147   1.0000
   7.900   0.8385   0.02797   0.01845   0.0093   0.1119   1.0000
   8.000   0.8484   0.02892   0.01926   0.0093   0.1093   1.0000
   8.100   0.8557   0.02942   0.01995   0.0100   0.1072   1.0000
   8.200   0.8634   0.02998   0.02064   0.0106   0.1048   1.0000
   8.300   0.8713   0.03052   0.02125   0.0111   0.1023   1.0000
   8.400   0.8794   0.03103   0.02177   0.0116   0.1001   1.0000
   8.500   0.8882   0.03163   0.02232   0.0118   0.0981   1.0000
   8.600   0.8977   0.03286   0.02345   0.0118   0.0962   1.0000
   8.700   0.9037   0.03350   0.02430   0.0127   0.0950   1.0000
   8.800   0.9098   0.03423   0.02524   0.0135   0.0935   1.0000
   8.900   0.9160   0.03500   0.02618   0.0142   0.0920   1.0000
   9.000   0.9226   0.03573   0.02702   0.0148   0.0903   1.0000
   9.100   0.9298   0.03638   0.02772   0.0153   0.0887   1.0000
   9.200   0.9374   0.03701   0.02837   0.0157   0.0872   1.0000
   9.300   0.9450   0.03773   0.02908   0.0160   0.0858   1.0000
   9.400   0.9527   0.03882   0.03015   0.0162   0.0847   1.0000
   9.500   0.9583   0.04037   0.03176   0.0166   0.0839   1.0000
   9.600   0.9611   0.04134   0.03297   0.0177   0.0833   1.0000
   9.700   0.9632   0.04242   0.03428   0.0187   0.0827   1.0000
   9.800   0.9650   0.04358   0.03567   0.0197   0.0821   1.0000
   9.900   0.9662   0.04480   0.03709   0.0207   0.0814   1.0000
  10.000   0.9669   0.04607   0.03855   0.0217   0.0807   1.0000
