  
       XFOIL         Version 6.99
  
 Calculated polar for: NACA 0012                                       
  
 1 1 Reynolds number fixed          Mach number fixed         
  
 xtrf =   1.000 (top)        1.000 (bottom)  
 Mach =   0.000     Re =     0.029 e 6     Ncrit =   9.000
  
   alpha    CL        CD       CDp       CM     Top_Xtr  Bot_Xtr
  ------ -------- --------- --------- -------- -------- --------
   0.000   0.0000   0.02533   0.01222  -0.0000   1.0000   1.0000
   0.100  -0.0012   0.02534   0.01223   0.0015   1.0000   1.0000
   0.200  -0.0023   0.02536   0.01225   0.0029   1.0000   1.0000
   0.300  -0.0033   0.02540   0.01228   0.0043   1.0000   1.0000
   0.400  -0.0040   0.02545   0.01232   0.0057   1.0000   1.0000
   0.500  -0.0046   0.02552   0.01238   0.0071   1.0000   1.0000
   0.600  -0.0049   0.02560   0.01244   0.0084   1.0000   1.0000
   0.700  -0.0049   0.02569   0.01253   0.0096   1.0000   1.0000
   0.800  -0.0047   0.02580   0.01262   0.0107   1.0000   1.0000
   0.900  -0.0043   0.02593   0.01273   0.0119   1.0000   1.0000
   1.000  -0.0035   0.02606   0.01286   0.0129   1.0000   1.0000
   1.100  -0.0025   0.02622   0.01300   0.0139   1.0000   1.0000
   1.200  -0.0011   0.02639   0.01315   0.0148   1.0000   1.0000
   1.300   0.0006   0.02657   0.01333   0.0156   1.0000   1.0000
   1.400   0.0026   0.02678   0.01352   0.0164   1.0000   1.0000
   1.500   0.0049   0.02699   0.01373   0.0171   1.0000   1.0000
   1.600   0.0074   0.02723   0.01395   0.0177   1.0000   1.0000
   1.700   0.0102   0.02748   0.01419   0.0182   1.0000   1.0000
   1.800   0.0132   0.02774   0.01446   0.0187   1.0000   1.0000
   1.900   0.0164   0.02802   0.01473   0.0191   1.0000   1.0000
   2.000   0.0197   0.02832   0.01503   0.0194   1.0000   1.0000
   2.100   0.0232   0.02864   0.01535   0.0197   1.0000   1.0000
   2.200   0.0268   0.02897   0.01569   0.0200   1.0000   1.0000
   2.300   0.0304   0.02932   0.01604   0.0202   1.0000   1.0000
   2.400   0.0342   0.02968   0.01641   0.0203   1.0000   1.0000
   2.500   0.0381   0.03007   0.01680   0.0205   1.0000   1.0000
   2.600   0.0420   0.03047   0.01721   0.0205   1.0000   1.0000
   2.700   0.0460   0.03088   0.01764   0.0205   1.0000   1.0000
   2.800   0.0500   0.03132   0.01809   0.0205   1.0000   1.0000
   2.900   0.0540   0.03177   0.01855   0.0205   1.0000   1.0000
   3.000   0.0581   0.03224   0.01904   0.0204   1.0000   1.0000
   3.100   0.0622   0.03273   0.01955   0.0203   1.0000   1.0000
   3.200   0.0807   0.03361   0.02049   0.0173   0.9938   1.0000
   3.300   0.1227   0.03499   0.02201   0.0100   0.9733   1.0000
   3.400   0.1610   0.03620   0.02336   0.0037   0.9534   1.0000
   3.500   0.1920   0.03715   0.02444  -0.0010   0.9336   1.0000
   3.600   0.2242   0.03805   0.02550  -0.0056   0.9137   1.0000
   3.700   0.2652   0.03896   0.02658  -0.0113   0.8918   1.0000
   3.800   0.2904   0.03959   0.02734  -0.0142   0.8722   1.0000
   3.900   0.3145   0.04016   0.02804  -0.0167   0.8524   1.0000
   4.000   0.3427   0.04066   0.02872  -0.0195   0.8314   1.0000
   4.100   0.3881   0.04093   0.02924  -0.0243   0.8061   1.0000
   4.200   0.4095   0.04125   0.02969  -0.0255   0.7855   1.0000
   4.300   0.4382   0.04133   0.02995  -0.0272   0.7631   1.0000
   4.400   0.4750   0.04100   0.02985  -0.0289   0.7386   1.0000
   4.500   0.4907   0.04114   0.03008  -0.0286   0.7189   1.0000
   4.600   0.5099   0.04107   0.03014  -0.0282   0.6981   1.0000
   4.700   0.5446   0.04014   0.02936  -0.0280   0.6732   1.0000
   4.800   0.5550   0.04029   0.02957  -0.0267   0.6545   1.0000
   4.900   0.5659   0.04039   0.02974  -0.0253   0.6356   1.0000
   5.000   0.5774   0.04044   0.02983  -0.0238   0.6164   1.0000
   5.100   0.5898   0.04040   0.02982  -0.0221   0.5970   1.0000
   5.200   0.6037   0.04021   0.02965  -0.0204   0.5773   1.0000
   5.300   0.6184   0.03994   0.02937  -0.0186   0.5578   1.0000
   5.400   0.6294   0.03995   0.02934  -0.0168   0.5392   1.0000
   5.500   0.6374   0.04026   0.02965  -0.0152   0.5221   1.0000
   5.600   0.6454   0.04058   0.02995  -0.0137   0.5052   1.0000
   5.700   0.6536   0.04089   0.03026  -0.0121   0.4885   1.0000
   5.800   0.6624   0.04122   0.03056  -0.0106   0.4725   1.0000
   5.900   0.6707   0.04161   0.03092  -0.0092   0.4570   1.0000
   6.000   0.6735   0.04253   0.03190  -0.0081   0.4435   1.0000
   6.100   0.6780   0.04340   0.03279  -0.0071   0.4308   1.0000
   6.200   0.6854   0.04403   0.03340  -0.0059   0.4180   1.0000
   6.300   0.6952   0.04439   0.03371  -0.0046   0.4046   1.0000
   6.400   0.7020   0.04506   0.03438  -0.0035   0.3926   1.0000
   6.500   0.7030   0.04644   0.03586  -0.0028   0.3840   1.0000
   6.600   0.7140   0.04682   0.03615  -0.0016   0.3723   1.0000
   6.700   0.7130   0.04836   0.03785  -0.0010   0.3648   1.0000
   6.800   0.7222   0.04897   0.03841  -0.0000   0.3549   1.0000
   6.900   0.7214   0.05059   0.04016   0.0005   0.3488   1.0000
   7.000   0.7322   0.05110   0.04060   0.0015   0.3395   1.0000
   7.100   0.7279   0.05308   0.04274   0.0018   0.3354   1.0000
   7.200   0.7441   0.05310   0.04262   0.0031   0.3247   1.0000
   7.300   0.7376   0.05533   0.04502   0.0033   0.3223   1.0000
   7.400   0.7322   0.05749   0.04730   0.0034   0.3198   1.0000
   7.500   0.7284   0.05949   0.04938   0.0036   0.3170   1.0000
   7.600   0.7456   0.05955   0.04936   0.0048   0.3077   1.0000
   7.700   0.7380   0.06192   0.05183   0.0048   0.3066   1.0000
   7.800   0.7303   0.06432   0.05431   0.0046   0.3057   1.0000
   7.900   0.7222   0.06678   0.05681   0.0043   0.3052   1.0000
   8.000   0.7137   0.06929   0.05935   0.0039   0.3050   1.0000
   8.100   0.7052   0.07184   0.06192   0.0033   0.3052   1.0000
   8.200   0.6968   0.07441   0.06449   0.0027   0.3055   1.0000
   8.300   0.6889   0.07698   0.06705   0.0019   0.3060   1.0000
   8.400   0.6819   0.07953   0.06958   0.0011   0.3065   1.0000
   8.500   0.6755   0.08198   0.07201   0.0004   0.3072   1.0000
   8.600   0.6702   0.08441   0.07442  -0.0004   0.3079   1.0000
   8.700   0.6662   0.08687   0.07686  -0.0013   0.3086   1.0000
   9.100   0.6060   0.10046   0.09016  -0.0112   0.3383   1.0000
   9.200   0.6095   0.10263   0.09234  -0.0118   0.3402   1.0000
   9.900   0.5087   0.12308   0.11250  -0.0346   0.5747   1.0000
  10.000   0.5098   0.12453   0.11395  -0.0346   0.5715   1.0000
