  
       XFOIL         Version 6.99
  
 Calculated polar for: NACA 0012                                       
  
 1 1 Reynolds number fixed          Mach number fixed         
  
 xtrf =   1.000 (top)        1.000 (bottom)  
 Mach =   0.000     Re =     0.076 e 6     Ncrit =   9.000
  
   alpha    CL        CD       CDp       CM     Top_Xtr  Bot_Xtr
  ------ -------- --------- --------- -------- -------- --------
   0.000   0.0000   0.01823   0.01040  -0.0000   1.0000   1.0000
   0.100  -0.0103   0.01824   0.01040   0.0025   1.0000   1.0000
   0.200  -0.0201   0.01827   0.01042   0.0050   1.0000   1.0000
   0.300  -0.0287   0.01831   0.01046   0.0073   1.0000   1.0000
   0.400  -0.0349   0.01838   0.01052   0.0092   0.9998   1.0000
   0.500  -0.0042   0.01855   0.01069   0.0049   0.9936   1.0000
   0.600   0.0258   0.01867   0.01082   0.0008   0.9863   1.0000
   0.700   0.0555   0.01877   0.01094  -0.0031   0.9793   1.0000
   0.800   0.0860   0.01883   0.01102  -0.0071   0.9722   1.0000
   0.900   0.1143   0.01885   0.01107  -0.0107   0.9640   1.0000
   1.000   0.1467   0.01884   0.01110  -0.0149   0.9574   1.0000
   1.100   0.1744   0.01880   0.01109  -0.0181   0.9485   1.0000
   1.200   0.2096   0.01868   0.01102  -0.0227   0.9421   1.0000
   1.300   0.2362   0.01856   0.01094  -0.0256   0.9325   1.0000
   1.400   0.2680   0.01835   0.01079  -0.0292   0.9251   1.0000
   1.500   0.2886   0.01820   0.01068  -0.0309   0.9134   1.0000
   1.600   0.3110   0.01801   0.01053  -0.0327   0.9029   1.0000
   1.700   0.3327   0.01778   0.01033  -0.0342   0.8925   1.0000
   1.800   0.3467   0.01764   0.01022  -0.0344   0.8793   1.0000
   1.900   0.3604   0.01750   0.01009  -0.0345   0.8665   1.0000
   2.000   0.3737   0.01733   0.00994  -0.0344   0.8544   1.0000
   2.100   0.3855   0.01718   0.00978  -0.0339   0.8421   1.0000
   2.200   0.3943   0.01711   0.00971  -0.0331   0.8281   1.0000
   2.300   0.4031   0.01703   0.00962  -0.0322   0.8144   1.0000
   2.400   0.4118   0.01696   0.00954  -0.0312   0.8012   1.0000
   2.500   0.4207   0.01688   0.00943  -0.0302   0.7885   1.0000
   2.600   0.4289   0.01682   0.00935  -0.0292   0.7752   1.0000
   2.700   0.4365   0.01681   0.00932  -0.0282   0.7608   1.0000
   2.800   0.4442   0.01680   0.00929  -0.0271   0.7466   1.0000
   2.900   0.4521   0.01680   0.00925  -0.0261   0.7327   1.0000
   3.000   0.4601   0.01680   0.00921  -0.0251   0.7189   1.0000
   3.100   0.4682   0.01680   0.00916  -0.0241   0.7053   1.0000
   3.200   0.4762   0.01683   0.00913  -0.0231   0.6911   1.0000
   3.300   0.4839   0.01687   0.00914  -0.0222   0.6761   1.0000
   3.400   0.4917   0.01693   0.00916  -0.0212   0.6610   1.0000
   3.500   0.4996   0.01699   0.00918  -0.0203   0.6461   1.0000
   3.600   0.5075   0.01706   0.00920  -0.0194   0.6311   1.0000
   3.700   0.5154   0.01714   0.00922  -0.0185   0.6161   1.0000
   3.800   0.5234   0.01722   0.00925  -0.0177   0.6010   1.0000
   3.900   0.5313   0.01732   0.00927  -0.0168   0.5858   1.0000
   4.000   0.5392   0.01742   0.00931  -0.0159   0.5705   1.0000
   4.100   0.5471   0.01754   0.00935  -0.0151   0.5550   1.0000
   4.200   0.5549   0.01766   0.00939  -0.0142   0.5394   1.0000
   4.300   0.5626   0.01779   0.00947  -0.0134   0.5233   1.0000
   4.400   0.5703   0.01794   0.00955  -0.0126   0.5070   1.0000
   4.500   0.5779   0.01809   0.00964  -0.0118   0.4906   1.0000
   4.600   0.5854   0.01826   0.00973  -0.0109   0.4740   1.0000
   4.700   0.5929   0.01844   0.00983  -0.0101   0.4573   1.0000
   4.800   0.6003   0.01863   0.00994  -0.0093   0.4406   1.0000
   4.900   0.6077   0.01883   0.01006  -0.0085   0.4237   1.0000
   5.000   0.6150   0.01905   0.01019  -0.0077   0.4068   1.0000
   5.100   0.6222   0.01929   0.01035  -0.0069   0.3896   1.0000
   5.200   0.6293   0.01954   0.01053  -0.0061   0.3725   1.0000
   5.300   0.6364   0.01981   0.01071  -0.0053   0.3557   1.0000
   5.400   0.6436   0.02010   0.01091  -0.0045   0.3392   1.0000
   5.500   0.6506   0.02041   0.01112  -0.0038   0.3232   1.0000
   5.600   0.6578   0.02074   0.01134  -0.0030   0.3080   1.0000
   5.700   0.6649   0.02108   0.01159  -0.0023   0.2932   1.0000
   5.800   0.6721   0.02143   0.01188  -0.0016   0.2787   1.0000
   5.900   0.6793   0.02179   0.01220  -0.0008   0.2650   1.0000
   6.000   0.6866   0.02219   0.01253  -0.0001   0.2525   1.0000
   6.100   0.6942   0.02261   0.01285   0.0005   0.2416   1.0000
   6.200   0.7017   0.02300   0.01317   0.0011   0.2308   1.0000
   6.300   0.7092   0.02343   0.01360   0.0018   0.2204   1.0000
   6.400   0.7172   0.02391   0.01392   0.0023   0.2120   1.0000
   6.500   0.7249   0.02432   0.01439   0.0030   0.2028   1.0000
   6.600   0.7331   0.02483   0.01478   0.0035   0.1955   1.0000
   6.700   0.7408   0.02525   0.01526   0.0041   0.1877   1.0000
   6.800   0.7497   0.02583   0.01565   0.0045   0.1816   1.0000
   6.900   0.7572   0.02628   0.01626   0.0052   0.1749   1.0000
   7.000   0.7657   0.02675   0.01664   0.0056   0.1692   1.0000
   7.100   0.7741   0.02737   0.01727   0.0061   0.1640   1.0000
   7.200   0.7821   0.02788   0.01787   0.0067   0.1587   1.0000
   7.300   0.7909   0.02840   0.01830   0.0070   0.1542   1.0000
   7.400   0.7995   0.02912   0.01900   0.0074   0.1501   1.0000
   7.500   0.8070   0.02968   0.01972   0.0081   0.1458   1.0000
   7.600   0.8153   0.03021   0.02026   0.0086   0.1418   1.0000
   7.700   0.8246   0.03087   0.02080   0.0088   0.1385   1.0000
   7.800   0.8325   0.03171   0.02173   0.0093   0.1355   1.0000
   7.900   0.8395   0.03239   0.02259   0.0100   0.1323   1.0000
   8.000   0.8472   0.03301   0.02330   0.0106   0.1291   1.0000
   8.100   0.8555   0.03360   0.02388   0.0110   0.1263   1.0000
   8.200   0.8649   0.03445   0.02461   0.0111   0.1237   1.0000
   8.300   0.8714   0.03545   0.02576   0.0117   0.1218   1.0000
   8.400   0.8767   0.03633   0.02688   0.0126   0.1199   1.0000
   8.500   0.8824   0.03721   0.02795   0.0134   0.1178   1.0000
   8.600   0.8887   0.03802   0.02887   0.0140   0.1157   1.0000
   8.700   0.8963   0.03872   0.02958   0.0144   0.1135   1.0000
   8.800   0.9046   0.03944   0.03026   0.0147   0.1115   1.0000
   8.900   0.9128   0.04056   0.03132   0.0149   0.1098   1.0000
   9.000   0.9171   0.04188   0.03279   0.0156   0.1088   1.0000
   9.100   0.9194   0.04305   0.03424   0.0167   0.1080   1.0000
   9.200   0.9212   0.04431   0.03574   0.0177   0.1071   1.0000
   9.300   0.9226   0.04562   0.03728   0.0187   0.1062   1.0000
   9.400   0.9234   0.04697   0.03883   0.0196   0.1053   1.0000
   9.500   0.9239   0.04833   0.04038   0.0205   0.1044   1.0000
   9.600   0.9242   0.04970   0.04192   0.0214   0.1035   1.0000
   9.700   0.9242   0.05108   0.04346   0.0222   0.1027   1.0000
   9.800   0.9238   0.05249   0.04501   0.0230   0.1020   1.0000
   9.900   0.9226   0.05398   0.04663   0.0238   0.1014   1.0000
  10.000   0.9199   0.05562   0.04842   0.0247   0.1012   1.0000
  10.100   0.9146   0.05749   0.05045   0.0255   0.1013   1.0000
  10.200   0.9070   0.05952   0.05264   0.0263   0.1016   1.0000
  10.300   0.8974   0.06167   0.05494   0.0271   0.1020   1.0000
  10.400   0.8861   0.06390   0.05730   0.0277   0.1026   1.0000
  10.500   0.8735   0.06612   0.05962   0.0283   0.1032   1.0000
  10.600   0.8582   0.06832   0.06191   0.0289   0.1039   1.0000
  10.700   0.8430   0.07072   0.06438   0.0290   0.1046   1.0000
  10.800   0.8282   0.07336   0.06708   0.0284   0.1054   1.0000
  10.900   0.8145   0.07621   0.06997   0.0273   0.1062   1.0000
  11.000   0.8027   0.07918   0.07296   0.0259   0.1069   1.0000
  11.100   0.7936   0.08211   0.07591   0.0245   0.1076   1.0000
  11.200   0.7878   0.08484   0.07864   0.0233   0.1081   1.0000
  11.300   0.7854   0.08726   0.08107   0.0226   0.1086   1.0000
  11.400   0.7866   0.08935   0.08317   0.0223   0.1090   1.0000
  11.500   0.7902   0.09128   0.08510   0.0224   0.1093   1.0000
  11.700   0.5012   0.12844   0.12246   0.0005   0.2127   1.0000
  11.800   0.4792   0.12901   0.12300  -0.0011   0.2115   1.0000
  11.900   0.4661   0.12961   0.12357  -0.0020   0.2085   1.0000
  12.000   0.4640   0.13061   0.12457  -0.0023   0.2054   1.0000
  12.100   0.4663   0.13180   0.12577  -0.0023   0.2029   1.0000
  12.200   0.4726   0.13322   0.12720  -0.0021   0.2008   1.0000
  12.300   0.4903   0.13548   0.12949  -0.0013   0.1987   1.0000
  12.400   0.5042   0.13832   0.13234  -0.0007   0.1973   1.0000
  12.500   0.4869   0.13856   0.13255  -0.0021   0.1966   1.0000
  12.600   0.4705   0.13838   0.13235  -0.0032   0.1947   1.0000
  12.700   0.4642   0.13886   0.13282  -0.0037   0.1916   1.0000
  12.800   0.4647   0.13978   0.13375  -0.0039   0.1886   1.0000
  12.900   0.4718   0.14110   0.13508  -0.0036   0.1856   1.0000
  13.000   0.5022   0.14501   0.13904  -0.0021   0.1827   1.0000
  13.100   0.5067   0.14728   0.14131  -0.0022   0.1819   1.0000
  13.200   0.4882   0.14664   0.14064  -0.0035   0.1812   1.0000
  13.300   0.4710   0.14560   0.13959  -0.0044   0.1796   1.0000
  13.400   0.4635   0.14555   0.13953  -0.0048   0.1770   1.0000
  13.500   0.4621   0.14618   0.14016  -0.0051   0.1746   1.0000
  13.600   0.4637   0.14709   0.14109  -0.0051   0.1724   1.0000
  13.700   0.4684   0.14834   0.14235  -0.0050   0.1705   1.0000
  13.800   0.4801   0.15058   0.14461  -0.0047   0.1686   1.0000
  13.900   0.5102   0.15678   0.15082  -0.0041   0.1667   1.0000
  14.000   0.4938   0.15537   0.14940  -0.0048   0.1664   1.0000
  14.100   0.4782   0.15389   0.14792  -0.0056   0.1656   1.0000
  14.200   0.4669   0.15311   0.14713  -0.0064   0.1638   1.0000
  14.300   0.4635   0.15343   0.14745  -0.0069   0.1610   1.0000
  14.400   0.4644   0.15422   0.14824  -0.0071   0.1585   1.0000
  14.500   0.4685   0.15532   0.14936  -0.0071   0.1560   1.0000
  14.600   0.4787   0.15729   0.15134  -0.0067   0.1539   1.0000
  14.700   0.5186   0.16580   0.15988  -0.0055   0.1519   1.0000
  14.800   0.5033   0.16410   0.15817  -0.0063   0.1517   1.0000
  14.900   0.4884   0.16238   0.15644  -0.0072   0.1512   1.0000
  15.000   0.4763   0.16118   0.15523  -0.0083   0.1501   1.0000
