  
       XFOIL         Version 6.99
  
 Calculated polar for: NACA 0012                                       
  
 1 1 Reynolds number fixed          Mach number fixed         
  
 xtrf =   1.000 (top)        1.000 (bottom)  
 Mach =   0.000     Re =     5.000 e 6     Ncrit =   9.000
  
   alpha    CL        CD       CDp       CM     Top_Xtr  Bot_Xtr
  ------ -------- --------- --------- -------- -------- --------
   0.000   0.0000   0.00508   0.00067  -0.0000   0.4381   0.4368
   0.100   0.0113   0.00508   0.00067  -0.0000   0.4285   0.4461
   0.200   0.0226   0.00508   0.00067  -0.0000   0.4197   0.4550
   0.300   0.0338   0.00509   0.00068  -0.0000   0.4090   0.4653
   0.400   0.0452   0.00509   0.00068  -0.0001   0.4023   0.4728
   0.500   0.0564   0.00510   0.00069  -0.0001   0.3920   0.4823
   0.600   0.0678   0.00510   0.00069  -0.0001   0.3847   0.4895
   0.700   0.0789   0.00511   0.00069  -0.0001   0.3738   0.4995
   0.800   0.0903   0.00512   0.00070  -0.0001   0.3658   0.5074
   0.900   0.1015   0.00513   0.00071  -0.0001   0.3566   0.5178
   1.000   0.1129   0.00513   0.00072  -0.0001   0.3490   0.5267
   1.100   0.1241   0.00515   0.00073  -0.0001   0.3393   0.5360
   1.200   0.1354   0.00517   0.00074  -0.0002   0.3306   0.5434
   1.300   0.1466   0.00518   0.00075  -0.0002   0.3217   0.5533
   1.400   0.1578   0.00520   0.00076  -0.0002   0.3125   0.5613
   1.500   0.1691   0.00521   0.00077  -0.0002   0.3044   0.5705
   1.600   0.1803   0.00524   0.00079  -0.0002   0.2949   0.5794
   1.700   0.1917   0.00525   0.00080  -0.0002   0.2875   0.5882
   1.800   0.2028   0.00528   0.00082  -0.0002   0.2764   0.5975
   1.900   0.2141   0.00530   0.00084  -0.0002   0.2688   0.6063
   2.000   0.2252   0.00532   0.00086  -0.0002   0.2590   0.6159
   2.100   0.2365   0.00535   0.00088  -0.0002   0.2517   0.6238
   2.200   0.2477   0.00537   0.00090  -0.0002   0.2430   0.6338
   2.300   0.2589   0.00541   0.00093  -0.0002   0.2339   0.6416
   2.400   0.2701   0.00542   0.00094  -0.0002   0.2266   0.6512
   2.500   0.2813   0.00546   0.00097  -0.0002   0.2182   0.6594
   2.600   0.2924   0.00548   0.00099  -0.0002   0.2098   0.6694
   2.700   0.3036   0.00552   0.00102  -0.0002   0.2013   0.6777
   2.800   0.3148   0.00554   0.00105  -0.0002   0.1944   0.6867
   2.900   0.3259   0.00558   0.00108  -0.0002   0.1864   0.6961
   3.000   0.3371   0.00561   0.00110  -0.0002   0.1798   0.7051
   3.100   0.3481   0.00566   0.00114  -0.0001   0.1699   0.7144
   3.200   0.3594   0.00568   0.00117  -0.0001   0.1644   0.7224
   3.300   0.3704   0.00572   0.00120  -0.0001   0.1569   0.7320
   3.400   0.3816   0.00575   0.00123  -0.0001   0.1504   0.7402
   3.500   0.3927   0.00579   0.00127  -0.0001   0.1435   0.7496
   3.700   0.4149   0.00586   0.00134  -0.0000   0.1318   0.7671
   3.800   0.4259   0.00592   0.00138   0.0000   0.1230   0.7748
   3.900   0.4371   0.00594   0.00141   0.0000   0.1197   0.7845
   4.000   0.4481   0.00600   0.00146   0.0001   0.1126   0.7917
   4.100   0.4592   0.00603   0.00149   0.0001   0.1081   0.8010
   4.300   0.4812   0.00612   0.00158   0.0002   0.0972   0.8169
   4.400   0.4925   0.00616   0.00162   0.0002   0.0941   0.8241
   4.500   0.5034   0.00619   0.00166   0.0003   0.0900   0.8330
   4.600   0.5144   0.00626   0.00171   0.0003   0.0840   0.8401
   4.700   0.5255   0.00628   0.00175   0.0003   0.0820   0.8476
   4.800   0.5365   0.00633   0.00180   0.0004   0.0783   0.8551
   4.900   0.5474   0.00639   0.00185   0.0004   0.0738   0.8620
   5.000   0.5585   0.00642   0.00189   0.0005   0.0716   0.8693
   5.100   0.5695   0.00648   0.00195   0.0005   0.0681   0.8755
   5.200   0.5803   0.00653   0.00200   0.0006   0.0643   0.8826
   5.300   0.5914   0.00657   0.00205   0.0007   0.0620   0.8889
   5.400   0.6024   0.00661   0.00210   0.0007   0.0602   0.8947
   5.500   0.6131   0.00667   0.00215   0.0008   0.0577   0.9011
   5.600   0.6241   0.00673   0.00221   0.0009   0.0543   0.9064
   5.700   0.6350   0.00677   0.00226   0.0010   0.0529   0.9119
   5.800   0.6458   0.00682   0.00231   0.0011   0.0509   0.9177
   5.900   0.6567   0.00689   0.00237   0.0011   0.0484   0.9225
   6.000   0.6674   0.00695   0.00243   0.0012   0.0460   0.9272
   6.100   0.6782   0.00699   0.00248   0.0013   0.0452   0.9326
   6.200   0.6891   0.00704   0.00253   0.0014   0.0439   0.9370
   6.300   0.7000   0.00711   0.00260   0.0015   0.0423   0.9408
   6.400   0.7104   0.00718   0.00266   0.0017   0.0403   0.9455
   6.500   0.7210   0.00723   0.00272   0.0018   0.0390   0.9498
   6.600   0.7319   0.00728   0.00277   0.0019   0.0383   0.9535
   6.700   0.7427   0.00735   0.00283   0.0020   0.0370   0.9566
   6.800   0.7529   0.00742   0.00290   0.0022   0.0356   0.9605
   6.900   0.7633   0.00749   0.00297   0.0024   0.0336   0.9642
   7.000   0.7740   0.00755   0.00302   0.0025   0.0331   0.9675
   7.100   0.7848   0.00761   0.00308   0.0026   0.0325   0.9700
   7.200   0.7953   0.00767   0.00314   0.0028   0.0316   0.9729
   7.300   0.8058   0.00775   0.00321   0.0029   0.0306   0.9758
   7.400   0.8163   0.00783   0.00328   0.0031   0.0294   0.9786
   7.500   0.8268   0.00790   0.00335   0.0032   0.0283   0.9811
   7.600   0.8375   0.00796   0.00341   0.0033   0.0280   0.9831
   7.700   0.8492   0.00803   0.00348   0.0032   0.0275   0.9848
   7.800   0.8609   0.00810   0.00354   0.0030   0.0269   0.9864
   7.900   0.8725   0.00819   0.00362   0.0029   0.0260   0.9880
   8.000   0.8839   0.00828   0.00370   0.0028   0.0250   0.9897
   8.100   0.8949   0.00837   0.00378   0.0029   0.0240   0.9913
   8.200   0.9060   0.00843   0.00385   0.0029   0.0237   0.9928
   8.300   0.9174   0.00851   0.00392   0.0028   0.0234   0.9939
   8.400   0.9301   0.00859   0.00399   0.0024   0.0229   0.9943
   8.500   0.9427   0.00868   0.00408   0.0021   0.0224   0.9948
   8.600   0.9552   0.00878   0.00416   0.0017   0.0217   0.9952
   8.700   0.9677   0.00888   0.00426   0.0014   0.0210   0.9955
   8.800   0.9802   0.00899   0.00436   0.0010   0.0202   0.9958
   8.900   0.9928   0.00906   0.00443   0.0007   0.0200   0.9961
   9.000   1.0054   0.00914   0.00451   0.0003   0.0198   0.9965
   9.100   1.0179   0.00923   0.00459  -0.0000   0.0195   0.9968
   9.200   1.0303   0.00932   0.00468  -0.0003   0.0192   0.9972
   9.300   1.0426   0.00941   0.00477  -0.0006   0.0188   0.9976
   9.400   1.0548   0.00952   0.00487  -0.0009   0.0183   0.9979
   9.500   1.0670   0.00963   0.00497  -0.0012   0.0178   0.9983
   9.600   1.0791   0.00975   0.00508  -0.0015   0.0171   0.9986
   9.700   1.0913   0.00985   0.00518  -0.0018   0.0167   0.9989
   9.800   1.1035   0.00994   0.00527  -0.0021   0.0166   0.9992
   9.900   1.1157   0.01003   0.00536  -0.0024   0.0164   0.9995
  10.000   1.1279   0.01012   0.00545  -0.0026   0.0162   0.9997
  10.100   1.1400   0.01022   0.00555  -0.0029   0.0160   0.9999
  10.200   1.1509   0.01032   0.00564  -0.0029   0.0158   1.0000
  10.300   1.1595   0.01041   0.00573  -0.0024   0.0155   1.0000
  10.400   1.1681   0.01051   0.00583  -0.0019   0.0153   1.0000
  10.500   1.1768   0.01062   0.00593  -0.0015   0.0150   1.0000
  10.600   1.1855   0.01073   0.00604  -0.0010   0.0146   1.0000
  10.700   1.1942   0.01084   0.00616  -0.0006   0.0143   1.0000
  10.800   1.2030   0.01096   0.00628  -0.0001   0.0139   1.0000
  10.900   1.2121   0.01107   0.00639   0.0002   0.0137   1.0000
  11.000   1.2214   0.01116   0.00648   0.0006   0.0137   1.0000
  11.100   1.2308   0.01125   0.00657   0.0009   0.0136   1.0000
  11.200   1.2402   0.01134   0.00667   0.0012   0.0135   1.0000
  11.300   1.2497   0.01144   0.00677   0.0015   0.0134   1.0000
  11.400   1.2593   0.01154   0.00687   0.0017   0.0133   1.0000
  11.500   1.2689   0.01165   0.00698   0.0020   0.0132   1.0000
  11.600   1.2785   0.01176   0.00709   0.0022   0.0130   1.0000
  11.700   1.2880   0.01187   0.00720   0.0025   0.0129   1.0000
  11.800   1.2976   0.01199   0.00733   0.0027   0.0127   1.0000
  11.900   1.3072   0.01212   0.00745   0.0029   0.0125   1.0000
  12.000   1.3167   0.01225   0.00758   0.0032   0.0123   1.0000
  12.100   1.3261   0.01238   0.00772   0.0034   0.0121   1.0000
  12.200   1.3355   0.01253   0.00786   0.0037   0.0118   1.0000
  12.300   1.3449   0.01268   0.00802   0.0039   0.0116   1.0000
  12.400   1.3541   0.01284   0.00818   0.0042   0.0113   1.0000
  12.500   1.3635   0.01298   0.00833   0.0044   0.0111   1.0000
  12.600   1.3732   0.01309   0.00844   0.0046   0.0111   1.0000
  12.700   1.3828   0.01321   0.00856   0.0048   0.0110   1.0000
  12.800   1.3924   0.01333   0.00869   0.0050   0.0110   1.0000
  12.900   1.4020   0.01345   0.00882   0.0052   0.0109   1.0000
  13.000   1.4115   0.01358   0.00895   0.0054   0.0109   1.0000
  13.100   1.4209   0.01371   0.00908   0.0057   0.0108   1.0000
  13.200   1.4303   0.01384   0.00922   0.0059   0.0107   1.0000
  13.300   1.4396   0.01398   0.00936   0.0061   0.0106   1.0000
  13.400   1.4489   0.01412   0.00950   0.0064   0.0105   1.0000
  13.500   1.4580   0.01426   0.00965   0.0066   0.0104   1.0000
  13.600   1.4671   0.01441   0.00981   0.0069   0.0103   1.0000
  13.700   1.4761   0.01457   0.00997   0.0071   0.0102   1.0000
  13.800   1.4850   0.01473   0.01013   0.0074   0.0101   1.0000
  13.900   1.4939   0.01489   0.01030   0.0077   0.0100   1.0000
  14.000   1.5026   0.01506   0.01048   0.0080   0.0099   1.0000
  14.100   1.5112   0.01524   0.01066   0.0083   0.0098   1.0000
  14.200   1.5196   0.01542   0.01084   0.0087   0.0096   1.0000
  14.300   1.5280   0.01561   0.01104   0.0090   0.0094   1.0000
  14.400   1.5362   0.01581   0.01125   0.0094   0.0093   1.0000
  14.500   1.5442   0.01602   0.01146   0.0098   0.0091   1.0000
  14.600   1.5521   0.01624   0.01169   0.0102   0.0090   1.0000
  14.700   1.5598   0.01646   0.01193   0.0106   0.0088   1.0000
  14.800   1.5682   0.01662   0.01210   0.0110   0.0088   1.0000
  14.900   1.5765   0.01679   0.01228   0.0113   0.0088   1.0000
  15.000   1.5846   0.01696   0.01246   0.0117   0.0088   1.0000
