  
       XFOIL         Version 6.99
  
 Calculated polar for: NACA 0012                                       
  
 1 1 Reynolds number fixed          Mach number fixed         
  
 xtrf =   1.000 (top)        1.000 (bottom)  
 Mach =   0.000     Re =    10.000 e 6     Ncrit =   9.000
  
   alpha    CL        CD       CDp       CM     Top_Xtr  Bot_Xtr
  ------ -------- --------- --------- -------- -------- --------
   0.100   0.0114   0.00507   0.00065  -0.0000   0.3359   0.3518
   0.200   0.0228   0.00509   0.00065  -0.0001   0.3262   0.3573
   0.300   0.0342   0.00507   0.00065  -0.0001   0.3210   0.3673
   0.400   0.0455   0.00510   0.00066  -0.0001   0.3098   0.3731
   0.500   0.0570   0.00508   0.00066  -0.0002   0.3055   0.3825
   0.600   0.0683   0.00511   0.00067  -0.0002   0.2945   0.3894
   0.700   0.0797   0.00510   0.00067  -0.0002   0.2882   0.3984
   0.800   0.0910   0.00511   0.00068  -0.0002   0.2805   0.4058
   0.900   0.1025   0.00511   0.00068  -0.0003   0.2738   0.4140
   1.000   0.1137   0.00514   0.00069  -0.0003   0.2630   0.4215
   1.100   0.1252   0.00514   0.00070  -0.0003   0.2574   0.4290
   1.200   0.1365   0.00516   0.00071  -0.0004   0.2481   0.4381
   1.300   0.1480   0.00518   0.00072  -0.0004   0.2422   0.4429
   1.400   0.1592   0.00519   0.00073  -0.0004   0.2321   0.4535
   1.500   0.1707   0.00520   0.00074  -0.0005   0.2266   0.4597
   1.600   0.1818   0.00522   0.00076  -0.0005   0.2169   0.4705
   1.700   0.1933   0.00523   0.00077  -0.0005   0.2119   0.4778
   1.800   0.2046   0.00525   0.00078  -0.0005   0.2047   0.4856
   1.900   0.2160   0.00527   0.00080  -0.0005   0.1971   0.4918
   2.000   0.2274   0.00528   0.00081  -0.0006   0.1920   0.5021
   2.100   0.2387   0.00532   0.00084  -0.0006   0.1819   0.5067
   2.200   0.2501   0.00532   0.00085  -0.0006   0.1777   0.5167
   2.300   0.2614   0.00536   0.00087  -0.0006   0.1703   0.5236
   2.400   0.2727   0.00536   0.00089  -0.0007   0.1644   0.5342
   2.500   0.2840   0.00540   0.00091  -0.0007   0.1576   0.5397
   2.600   0.2953   0.00542   0.00093  -0.0007   0.1510   0.5489
   2.700   0.3067   0.00545   0.00095  -0.0007   0.1455   0.5564
   2.800   0.3179   0.00547   0.00098  -0.0007   0.1373   0.5666
   2.900   0.3294   0.00549   0.00100  -0.0008   0.1348   0.5725
   3.000   0.3405   0.00553   0.00103  -0.0007   0.1257   0.5816
   3.100   0.3519   0.00555   0.00105  -0.0008   0.1218   0.5889
   3.200   0.3632   0.00557   0.00108  -0.0008   0.1176   0.5975
   3.300   0.3744   0.00561   0.00111  -0.0008   0.1108   0.6051
   3.400   0.3858   0.00562   0.00113  -0.0008   0.1075   0.6149
   3.500   0.3970   0.00567   0.00116  -0.0008   0.1018   0.6217
   3.600   0.4083   0.00569   0.00119  -0.0008   0.0961   0.6312
   3.700   0.4197   0.00571   0.00121  -0.0009   0.0942   0.6386
   3.800   0.4309   0.00574   0.00125  -0.0009   0.0901   0.6478
   3.900   0.4421   0.00578   0.00128  -0.0009   0.0839   0.6551
   4.000   0.4535   0.00579   0.00131  -0.0009   0.0823   0.6640
   4.100   0.4646   0.00584   0.00135  -0.0009   0.0780   0.6722
   4.200   0.4758   0.00586   0.00138  -0.0009   0.0733   0.6815
   4.300   0.4872   0.00588   0.00141  -0.0009   0.0718   0.6887
   4.400   0.4985   0.00591   0.00145  -0.0009   0.0695   0.6977
   4.500   0.5096   0.00596   0.00149  -0.0009   0.0654   0.7058
   4.600   0.5209   0.00598   0.00152  -0.0009   0.0623   0.7145
   4.700   0.5322   0.00600   0.00155  -0.0009   0.0608   0.7227
   4.800   0.5433   0.00604   0.00160  -0.0009   0.0577   0.7319
   4.900   0.5546   0.00608   0.00164  -0.0009   0.0544   0.7395
   5.000   0.5658   0.00610   0.00167  -0.0009   0.0531   0.7484
   5.100   0.5771   0.00613   0.00171  -0.0009   0.0516   0.7557
   5.200   0.5882   0.00617   0.00175  -0.0009   0.0495   0.7649
   5.300   0.5994   0.00621   0.00180  -0.0009   0.0463   0.7729
   5.400   0.6106   0.00623   0.00184  -0.0009   0.0453   0.7812
   5.500   0.6218   0.00627   0.00188  -0.0009   0.0440   0.7892
   5.600   0.6329   0.00631   0.00193  -0.0009   0.0422   0.7979
   5.700   0.6441   0.00635   0.00197  -0.0009   0.0400   0.8052
   5.800   0.6553   0.00638   0.00201  -0.0009   0.0390   0.8131
   5.900   0.6665   0.00640   0.00205  -0.0009   0.0383   0.8215
   6.000   0.6777   0.00644   0.00210  -0.0009   0.0371   0.8287
   6.100   0.6887   0.00649   0.00215  -0.0008   0.0353   0.8370
   6.200   0.6998   0.00653   0.00220  -0.0008   0.0337   0.8434
   6.300   0.7109   0.00656   0.00224  -0.0008   0.0330   0.8516
   6.400   0.7221   0.00660   0.00229  -0.0008   0.0323   0.8574
   6.500   0.7331   0.00664   0.00234  -0.0007   0.0312   0.8652
   6.600   0.7441   0.00670   0.00240  -0.0007   0.0300   0.8719
   6.700   0.7552   0.00674   0.00245  -0.0007   0.0286   0.8780
   6.800   0.7662   0.00677   0.00250  -0.0006   0.0282   0.8852
   6.900   0.7774   0.00682   0.00255  -0.0006   0.0278   0.8905
   7.000   0.7884   0.00686   0.00260  -0.0006   0.0272   0.8971
   7.100   0.7993   0.00691   0.00265  -0.0005   0.0264   0.9034
   7.200   0.8103   0.00697   0.00271  -0.0005   0.0255   0.9078
   7.300   0.8211   0.00702   0.00278  -0.0004   0.0243   0.9144
   7.400   0.8320   0.00706   0.00283  -0.0003   0.0239   0.9202
   7.500   0.8431   0.00711   0.00288  -0.0003   0.0236   0.9238
   7.600   0.8539   0.00716   0.00294  -0.0002   0.0230   0.9297
   7.700   0.8646   0.00721   0.00300  -0.0001   0.0225   0.9348
   7.800   0.8755   0.00728   0.00306  -0.0001   0.0218   0.9387
   7.900   0.8863   0.00735   0.00313   0.0000   0.0210   0.9424
   8.000   0.8969   0.00740   0.00319   0.0001   0.0202   0.9477
   8.100   0.9077   0.00745   0.00325   0.0002   0.0200   0.9517
   8.200   0.9186   0.00750   0.00330   0.0003   0.0199   0.9547
   8.300   0.9293   0.00756   0.00336   0.0004   0.0196   0.9583
   8.400   0.9397   0.00762   0.00343   0.0005   0.0193   0.9624
   8.500   0.9502   0.00768   0.00349   0.0007   0.0189   0.9660
   8.600   0.9609   0.00776   0.00356   0.0008   0.0184   0.9686
   8.700   0.9715   0.00783   0.00363   0.0009   0.0179   0.9711
   8.800   0.9816   0.00790   0.00370   0.0011   0.0172   0.9747
   8.900   0.9920   0.00797   0.00377   0.0013   0.0167   0.9777
   9.000   1.0025   0.00803   0.00383   0.0014   0.0166   0.9803
   9.100   1.0131   0.00809   0.00390   0.0015   0.0165   0.9823
   9.200   1.0239   0.00816   0.00396   0.0016   0.0163   0.9843
   9.300   1.0348   0.00823   0.00403   0.0016   0.0160   0.9865
   9.400   1.0457   0.00831   0.00410   0.0017   0.0157   0.9885
   9.500   1.0565   0.00839   0.00418   0.0017   0.0154   0.9904
   9.600   1.0671   0.00848   0.00426   0.0018   0.0150   0.9921
   9.700   1.0774   0.00856   0.00434   0.0020   0.0146   0.9936
  10.300   1.1496   0.00906   0.00482   0.0005   0.0134   0.9970
  10.400   1.1616   0.00915   0.00490   0.0003   0.0132   0.9975
  10.500   1.1735   0.00924   0.00499   0.0000   0.0131   0.9978
  10.600   1.1853   0.00933   0.00508  -0.0002   0.0128   0.9982
  10.700   1.1970   0.00943   0.00517  -0.0004   0.0126   0.9985
  10.800   1.2087   0.00954   0.00527  -0.0006   0.0123   0.9989
  10.900   1.2203   0.00965   0.00538  -0.0007   0.0120   0.9992
  11.000   1.2320   0.00976   0.00548  -0.0009   0.0117   0.9994
  11.100   1.2436   0.00986   0.00558  -0.0011   0.0114   0.9997
  11.200   1.2552   0.00997   0.00568  -0.0013   0.0111   0.9998
  11.300   1.2668   0.01005   0.00577  -0.0014   0.0111   1.0000
  11.400   1.2760   0.01013   0.00585  -0.0011   0.0111   1.0000
  11.500   1.2853   0.01022   0.00593  -0.0007   0.0110   1.0000
  11.600   1.2946   0.01030   0.00602  -0.0004   0.0110   1.0000
  11.700   1.3040   0.01039   0.00611  -0.0001   0.0109   1.0000
  11.800   1.3136   0.01048   0.00620   0.0002   0.0108   1.0000
  11.900   1.3232   0.01058   0.00629   0.0004   0.0107   1.0000
  12.000   1.3329   0.01068   0.00639   0.0007   0.0106   1.0000
  12.100   1.3427   0.01078   0.00649   0.0009   0.0104   1.0000
  12.200   1.3524   0.01089   0.00660   0.0011   0.0103   1.0000
  12.300   1.3621   0.01100   0.00671   0.0013   0.0102   1.0000
  12.400   1.3718   0.01112   0.00683   0.0015   0.0100   1.0000
  12.500   1.3815   0.01124   0.00694   0.0017   0.0098   1.0000
  12.600   1.3912   0.01136   0.00706   0.0019   0.0096   1.0000
  12.700   1.4010   0.01148   0.00719   0.0021   0.0094   1.0000
  12.800   1.4106   0.01161   0.00731   0.0023   0.0092   1.0000
  12.900   1.4203   0.01174   0.00744   0.0025   0.0090   1.0000
  13.000   1.4299   0.01186   0.00756   0.0027   0.0088   1.0000
  13.100   1.4398   0.01197   0.00767   0.0029   0.0088   1.0000
  13.200   1.4496   0.01207   0.00778   0.0031   0.0088   1.0000
  13.300   1.4594   0.01218   0.00789   0.0032   0.0088   1.0000
  13.400   1.4692   0.01229   0.00800   0.0034   0.0088   1.0000
  13.500   1.4789   0.01240   0.00812   0.0036   0.0087   1.0000
  13.600   1.4886   0.01252   0.00823   0.0038   0.0087   1.0000
  13.700   1.4982   0.01263   0.00835   0.0040   0.0087   1.0000
  13.800   1.5078   0.01275   0.00847   0.0042   0.0086   1.0000
  13.900   1.5174   0.01288   0.00860   0.0044   0.0086   1.0000
  14.000   1.5269   0.01300   0.00872   0.0046   0.0085   1.0000
  14.100   1.5363   0.01313   0.00885   0.0048   0.0085   1.0000
  14.200   1.5456   0.01326   0.00899   0.0050   0.0084   1.0000
  14.300   1.5549   0.01340   0.00912   0.0052   0.0083   1.0000
  14.400   1.5641   0.01353   0.00926   0.0055   0.0083   1.0000
  14.500   1.5732   0.01368   0.00941   0.0057   0.0082   1.0000
  14.600   1.5823   0.01383   0.00956   0.0060   0.0081   1.0000
  14.700   1.5912   0.01398   0.00971   0.0063   0.0080   1.0000
  14.800   1.6000   0.01414   0.00987   0.0066   0.0079   1.0000
  14.900   1.6088   0.01430   0.01004   0.0069   0.0078   1.0000
  15.000   1.6175   0.01446   0.01020   0.0072   0.0077   1.0000
