  
       XFOIL         Version 6.99
  
 Calculated polar for: NACA 0012                                       
  
 1 1 Reynolds number fixed          Mach number fixed         
  
 xtrf =   1.000 (top)        1.000 (bottom)  
 Mach =   0.000     Re =     0.088 e 6     Ncrit =   9.000
  
   alpha    CL        CD       CDp       CM     Top_Xtr  Bot_Xtr
  ------ -------- --------- --------- -------- -------- --------
   0.000   0.0000   0.01752   0.01026  -0.0000   1.0000   1.0000
   0.100  -0.0126   0.01753   0.01027   0.0028   1.0000   1.0000
   0.200  -0.0124   0.01756   0.01030   0.0035   0.9983   1.0000
   0.300   0.0166   0.01762   0.01036  -0.0004   0.9925   1.0000
   0.400   0.0454   0.01764   0.01039  -0.0043   0.9859   1.0000
   0.500   0.0739   0.01764   0.01040  -0.0080   0.9795   1.0000
   0.600   0.1027   0.01761   0.01039  -0.0116   0.9728   1.0000
   0.700   0.1308   0.01756   0.01036  -0.0151   0.9659   1.0000
   0.800   0.1601   0.01747   0.01030  -0.0188   0.9591   1.0000
   0.900   0.1902   0.01735   0.01020  -0.0225   0.9527   1.0000
   1.000   0.2175   0.01720   0.01009  -0.0256   0.9447   1.0000
   1.100   0.2436   0.01702   0.00995  -0.0284   0.9366   1.0000
   1.200   0.2673   0.01683   0.00979  -0.0307   0.9273   1.0000
   1.300   0.2869   0.01666   0.00965  -0.0322   0.9163   1.0000
   1.400   0.3084   0.01644   0.00945  -0.0339   0.9071   1.0000
   1.500   0.3226   0.01629   0.00931  -0.0342   0.8943   1.0000
   1.600   0.3353   0.01615   0.00919  -0.0342   0.8815   1.0000
   1.700   0.3475   0.01600   0.00904  -0.0340   0.8691   1.0000
   1.800   0.3593   0.01585   0.00888  -0.0337   0.8576   1.0000
   1.900   0.3679   0.01576   0.00879  -0.0329   0.8437   1.0000
   2.000   0.3763   0.01568   0.00870  -0.0320   0.8300   1.0000
   2.100   0.3848   0.01560   0.00860  -0.0312   0.8168   1.0000
   2.200   0.3934   0.01552   0.00850  -0.0303   0.8040   1.0000
   2.300   0.4018   0.01545   0.00839  -0.0293   0.7914   1.0000
   2.400   0.4094   0.01542   0.00834  -0.0284   0.7771   1.0000
   2.500   0.4172   0.01541   0.00830  -0.0274   0.7631   1.0000
   2.600   0.4250   0.01539   0.00825  -0.0265   0.7493   1.0000
   2.700   0.4331   0.01538   0.00820  -0.0255   0.7358   1.0000
   2.800   0.4412   0.01538   0.00814  -0.0246   0.7226   1.0000
   2.900   0.4492   0.01540   0.00812  -0.0237   0.7084   1.0000
   3.000   0.4571   0.01543   0.00811  -0.0229   0.6937   1.0000
   3.100   0.4651   0.01547   0.00811  -0.0221   0.6792   1.0000
   3.200   0.4731   0.01552   0.00811  -0.0212   0.6647   1.0000
   3.300   0.4812   0.01557   0.00811  -0.0204   0.6504   1.0000
   3.400   0.4894   0.01563   0.00811  -0.0196   0.6361   1.0000
   3.500   0.4975   0.01570   0.00812  -0.0188   0.6218   1.0000
   3.600   0.5056   0.01578   0.00813  -0.0180   0.6071   1.0000
   3.700   0.5136   0.01587   0.00817  -0.0173   0.5918   1.0000
   3.800   0.5216   0.01596   0.00822  -0.0165   0.5764   1.0000
   3.900   0.5296   0.01606   0.00826  -0.0158   0.5610   1.0000
   4.000   0.5376   0.01617   0.00832  -0.0150   0.5455   1.0000
   4.100   0.5455   0.01629   0.00837  -0.0143   0.5300   1.0000
   4.200   0.5534   0.01642   0.00844  -0.0136   0.5145   1.0000
   4.300   0.5612   0.01655   0.00852  -0.0128   0.4987   1.0000
   4.400   0.5690   0.01669   0.00859  -0.0121   0.4828   1.0000
   4.500   0.5767   0.01684   0.00867  -0.0113   0.4669   1.0000
   4.600   0.5843   0.01701   0.00876  -0.0106   0.4507   1.0000
   4.700   0.5919   0.01718   0.00886  -0.0099   0.4343   1.0000
   4.800   0.5994   0.01736   0.00897  -0.0091   0.4178   1.0000
   4.900   0.6068   0.01756   0.00909  -0.0084   0.4013   1.0000
   5.000   0.6142   0.01777   0.00922  -0.0076   0.3846   1.0000
   5.100   0.6215   0.01800   0.00937  -0.0069   0.3679   1.0000
   5.200   0.6287   0.01824   0.00954  -0.0061   0.3513   1.0000
   5.300   0.6359   0.01850   0.00971  -0.0054   0.3349   1.0000
   5.400   0.6430   0.01877   0.00989  -0.0047   0.3188   1.0000
   5.500   0.6501   0.01907   0.01010  -0.0039   0.3033   1.0000
   5.600   0.6572   0.01938   0.01031  -0.0032   0.2884   1.0000
   5.700   0.6643   0.01971   0.01053  -0.0025   0.2743   1.0000
   5.800   0.6714   0.02006   0.01077  -0.0018   0.2610   1.0000
   5.900   0.6787   0.02039   0.01106  -0.0011   0.2475   1.0000
   6.000   0.6860   0.02076   0.01138  -0.0004   0.2352   1.0000
   6.100   0.6934   0.02115   0.01170   0.0002   0.2244   1.0000
   6.200   0.7007   0.02153   0.01197   0.0009   0.2145   1.0000
   6.300   0.7084   0.02192   0.01237   0.0015   0.2044   1.0000
   6.400   0.7161   0.02238   0.01268   0.0021   0.1965   1.0000
   6.500   0.7237   0.02273   0.01308   0.0027   0.1876   1.0000
   6.600   0.7317   0.02322   0.01344   0.0032   0.1808   1.0000
   6.700   0.7396   0.02360   0.01389   0.0038   0.1734   1.0000
   6.800   0.7479   0.02410   0.01423   0.0043   0.1676   1.0000
   6.900   0.7558   0.02454   0.01477   0.0049   0.1613   1.0000
   7.000   0.7639   0.02495   0.01516   0.0054   0.1557   1.0000
   7.100   0.7728   0.02558   0.01565   0.0057   0.1512   1.0000
   7.200   0.7806   0.02601   0.01624   0.0064   0.1461   1.0000
   7.300   0.7889   0.02645   0.01666   0.0069   0.1416   1.0000
   7.400   0.7983   0.02711   0.01714   0.0070   0.1377   1.0000
   7.500   0.8061   0.02764   0.01782   0.0077   0.1339   1.0000
   7.600   0.8142   0.02816   0.01844   0.0083   0.1302   1.0000
   7.700   0.8227   0.02865   0.01891   0.0087   0.1268   1.0000
   7.800   0.8322   0.02936   0.01947   0.0088   0.1237   1.0000
   7.900   0.8398   0.03003   0.02028   0.0094   0.1209   1.0000
   8.000   0.8473   0.03063   0.02104   0.0101   0.1180   1.0000
   8.100   0.8554   0.03124   0.02172   0.0106   0.1154   1.0000
   8.200   0.8637   0.03183   0.02232   0.0110   0.1130   1.0000
   8.300   0.8727   0.03252   0.02293   0.0112   0.1107   1.0000
   8.400   0.8808   0.03355   0.02397   0.0115   0.1086   1.0000
   8.500   0.8865   0.03423   0.02490   0.0124   0.1067   1.0000
   8.600   0.8927   0.03499   0.02582   0.0131   0.1047   1.0000
   8.700   0.8995   0.03576   0.02671   0.0138   0.1028   1.0000
   8.800   0.9067   0.03655   0.02758   0.0143   0.1013   1.0000
   8.900   0.9143   0.03730   0.02835   0.0147   0.0997   1.0000
   9.000   0.9222   0.03807   0.02912   0.0150   0.0982   1.0000
   9.100   0.9302   0.03924   0.03023   0.0152   0.0967   1.0000
   9.200   0.9341   0.04040   0.03157   0.0160   0.0956   1.0000
   9.300   0.9365   0.04138   0.03282   0.0171   0.0945   1.0000
   9.400   0.9390   0.04248   0.03415   0.0181   0.0935   1.0000
   9.500   0.9413   0.04366   0.03553   0.0190   0.0925   1.0000
   9.600   0.9433   0.04492   0.03697   0.0199   0.0917   1.0000
   9.700   0.9448   0.04628   0.03851   0.0208   0.0912   1.0000
   9.800   0.9455   0.04768   0.04008   0.0217   0.0907   1.0000
   9.900   0.9457   0.04911   0.04168   0.0226   0.0903   1.0000
  10.000   0.9451   0.05057   0.04329   0.0234   0.0899   1.0000
  10.100   0.9439   0.05204   0.04492   0.0243   0.0895   1.0000
  10.200   0.9420   0.05354   0.04655   0.0251   0.0891   1.0000
  10.300   0.9394   0.05506   0.04821   0.0260   0.0887   1.0000
  10.400   0.9356   0.05665   0.04993   0.0268   0.0885   1.0000
  10.500   0.9303   0.05833   0.05173   0.0276   0.0883   1.0000
  10.600   0.9219   0.06023   0.05377   0.0285   0.0884   1.0000
  10.700   0.9098   0.06238   0.05607   0.0293   0.0889   1.0000
  10.800   0.8943   0.06455   0.05837   0.0302   0.0895   1.0000
  10.900   0.8782   0.06685   0.06077   0.0308   0.0903   1.0000
  11.000   0.8621   0.06938   0.06338   0.0307   0.0911   1.0000
  11.100   0.8453   0.07222   0.06629   0.0299   0.0920   1.0000
  11.200   0.8303   0.07525   0.06938   0.0286   0.0929   1.0000
  11.300   0.8170   0.07841   0.07258   0.0269   0.0936   1.0000
  11.400   0.8060   0.08158   0.07578   0.0252   0.0943   1.0000
  11.500   0.7970   0.08472   0.07894   0.0235   0.0948   1.0000
  11.600   0.7906   0.08766   0.08188   0.0221   0.0953   1.0000
  11.700   0.7860   0.09044   0.08467   0.0209   0.0956   1.0000
  11.800   0.7832   0.09305   0.08728   0.0199   0.0959   1.0000
  11.900   0.7821   0.09545   0.08968   0.0193   0.0961   1.0000
  12.100   0.5115   0.13125   0.12569   0.0020   0.1817   1.0000
  12.200   0.4931   0.13223   0.12664   0.0002   0.1810   1.0000
  12.300   0.4763   0.13285   0.12723  -0.0013   0.1788   1.0000
  12.400   0.4711   0.13371   0.12809  -0.0018   0.1758   1.0000
  12.500   0.4722   0.13473   0.12912  -0.0020   0.1730   1.0000
  12.600   0.4791   0.13594   0.13034  -0.0016   0.1704   1.0000
  12.700   0.4935   0.13775   0.13217  -0.0009   0.1685   1.0000
  12.800   0.5164   0.14060   0.13506   0.0007   0.1673   1.0000
  12.900   0.5143   0.14244   0.13688   0.0001   0.1667   1.0000
  13.000   0.4941   0.14249   0.13690  -0.0018   0.1659   1.0000
  13.100   0.4760   0.14207   0.13646  -0.0031   0.1640   1.0000
  13.200   0.4697   0.14248   0.13687  -0.0037   0.1616   1.0000
  13.300   0.4682   0.14319   0.13759  -0.0039   0.1594   1.0000
  13.400   0.4695   0.14407   0.13847  -0.0039   0.1575   1.0000
  13.500   0.4743   0.14523   0.13964  -0.0038   0.1555   1.0000
  13.600   0.4956   0.14823   0.14267  -0.0029   0.1532   1.0000
  13.700   0.5155   0.15227   0.14672  -0.0021   0.1517   1.0000
  13.800   0.4995   0.15174   0.14618  -0.0033   0.1513   1.0000
  13.900   0.4826   0.15051   0.14493  -0.0042   0.1506   1.0000
  14.000   0.4703   0.14991   0.14433  -0.0051   0.1487   1.0000
  14.100   0.4667   0.15033   0.14475  -0.0056   0.1462   1.0000
  14.200   0.4670   0.15111   0.14554  -0.0059   0.1439   1.0000
  14.300   0.4700   0.15209   0.14652  -0.0059   0.1419   1.0000
  14.400   0.4754   0.15334   0.14779  -0.0058   0.1403   1.0000
  14.500   0.4855   0.15533   0.14979  -0.0054   0.1389   1.0000
  14.600   0.5265   0.16324   0.15772  -0.0038   0.1373   1.0000
  14.700   0.5119   0.16223   0.15670  -0.0048   0.1371   1.0000
  14.800   0.4963   0.16077   0.15524  -0.0059   0.1367   1.0000
  14.900   0.4818   0.15945   0.15390  -0.0071   0.1359   1.0000
  15.000   0.4736   0.15916   0.15361  -0.0081   0.1341   1.0000
