  
       XFOIL         Version 6.99
  
 Calculated polar for: NACA 0012                                       
  
 1 1 Reynolds number fixed          Mach number fixed         
  
 xtrf =   1.000 (top)        1.000 (bottom)  
 Mach =   0.000     Re =     0.140 e 6     Ncrit =   9.000
  
   alpha    CL        CD       CDp       CM     Top_Xtr  Bot_Xtr
  ------ -------- --------- --------- -------- -------- --------
   0.000  -0.0000   0.01374   0.00796   0.0000   0.9446   0.9446
   0.100   0.0275   0.01373   0.00795  -0.0030   0.9421   0.9473
   0.200   0.0524   0.01370   0.00793  -0.0056   0.9380   0.9508
   0.300   0.0721   0.01366   0.00789  -0.0071   0.9316   0.9560
   0.400   0.0992   0.01359   0.00782  -0.0100   0.9274   0.9577
   0.500   0.1246   0.01350   0.00775  -0.0126   0.9224   0.9600
   0.600   0.1459   0.01343   0.00768  -0.0144   0.9144   0.9636
   0.700   0.1670   0.01332   0.00758  -0.0161   0.9083   0.9676
   0.800   0.1857   0.01325   0.00751  -0.0174   0.8983   0.9717
   0.900   0.2074   0.01312   0.00737  -0.0192   0.8906   0.9745
   1.000   0.2257   0.01303   0.00729  -0.0204   0.8794   0.9787
   1.100   0.2428   0.01294   0.00719  -0.0213   0.8687   0.9833
   1.200   0.2624   0.01281   0.00704  -0.0227   0.8581   0.9863
   1.300   0.2805   0.01271   0.00694  -0.0239   0.8449   0.9903
   1.400   0.2979   0.01263   0.00683  -0.0250   0.8318   0.9943
   1.500   0.3164   0.01251   0.00669  -0.0263   0.8183   0.9976
   1.600   0.3308   0.01244   0.00657  -0.0268   0.8048   1.0000
   1.700   0.3385   0.01238   0.00646  -0.0261   0.7918   1.0000
   1.800   0.3464   0.01233   0.00638  -0.0254   0.7778   1.0000
   1.900   0.3545   0.01230   0.00631  -0.0248   0.7642   1.0000
   2.000   0.3627   0.01227   0.00623  -0.0242   0.7508   1.0000
   2.100   0.3710   0.01226   0.00615  -0.0236   0.7376   1.0000
   2.200   0.3794   0.01225   0.00609  -0.0230   0.7244   1.0000
   2.300   0.3880   0.01225   0.00604  -0.0225   0.7102   1.0000
   2.400   0.3966   0.01226   0.00600  -0.0220   0.6962   1.0000
   2.500   0.4053   0.01227   0.00596  -0.0215   0.6824   1.0000
   2.600   0.4140   0.01230   0.00592  -0.0210   0.6689   1.0000
   2.700   0.4228   0.01233   0.00589  -0.0204   0.6553   1.0000
   2.800   0.4316   0.01237   0.00587  -0.0200   0.6413   1.0000
   2.900   0.4404   0.01240   0.00587  -0.0195   0.6270   1.0000
   3.000   0.4493   0.01245   0.00586  -0.0190   0.6128   1.0000
   3.100   0.4581   0.01250   0.00586  -0.0186   0.5987   1.0000
   3.200   0.4669   0.01256   0.00586  -0.0181   0.5849   1.0000
   3.300   0.4755   0.01263   0.00586  -0.0176   0.5710   1.0000
   3.400   0.4841   0.01271   0.00587  -0.0171   0.5570   1.0000
   3.500   0.4927   0.01278   0.00591  -0.0166   0.5425   1.0000
   3.600   0.5013   0.01286   0.00593  -0.0161   0.5280   1.0000
   3.700   0.5098   0.01294   0.00597  -0.0156   0.5135   1.0000
   3.800   0.5183   0.01304   0.00600  -0.0151   0.4993   1.0000
   3.900   0.5268   0.01314   0.00604  -0.0146   0.4849   1.0000
   4.000   0.5351   0.01325   0.00609  -0.0141   0.4706   1.0000
   4.100   0.5434   0.01337   0.00613  -0.0135   0.4562   1.0000
   4.200   0.5517   0.01348   0.00620  -0.0130   0.4413   1.0000
   4.300   0.5599   0.01360   0.00627  -0.0125   0.4262   1.0000
   4.400   0.5681   0.01372   0.00634  -0.0119   0.4111   1.0000
   4.500   0.5762   0.01386   0.00642  -0.0114   0.3960   1.0000
   4.600   0.5842   0.01400   0.00651  -0.0108   0.3809   1.0000
   4.700   0.5922   0.01415   0.00660  -0.0103   0.3657   1.0000
   4.800   0.6001   0.01432   0.00670  -0.0097   0.3505   1.0000
   4.900   0.6079   0.01449   0.00680  -0.0091   0.3352   1.0000
   5.000   0.6156   0.01467   0.00691  -0.0085   0.3200   1.0000
   5.100   0.6233   0.01487   0.00703  -0.0079   0.3048   1.0000
   5.200   0.6309   0.01508   0.00717  -0.0073   0.2898   1.0000
   5.300   0.6383   0.01530   0.00731  -0.0067   0.2752   1.0000
   5.400   0.6457   0.01554   0.00747  -0.0061   0.2608   1.0000
   5.500   0.6532   0.01577   0.00764  -0.0055   0.2464   1.0000
   5.600   0.6607   0.01602   0.00782  -0.0049   0.2325   1.0000
   5.700   0.6682   0.01628   0.00802  -0.0042   0.2197   1.0000
   5.800   0.6754   0.01656   0.00823  -0.0036   0.2079   1.0000
   6.000   0.6900   0.01713   0.00866  -0.0023   0.1863   1.0000
   6.100   0.6973   0.01744   0.00893  -0.0017   0.1771   1.0000
   6.200   0.7044   0.01776   0.00916  -0.0010   0.1687   1.0000
   6.300   0.7121   0.01805   0.00944  -0.0004   0.1604   1.0000
   6.400   0.7192   0.01838   0.00969   0.0002   0.1536   1.0000
   6.500   0.7269   0.01869   0.01000   0.0009   0.1467   1.0000
   6.600   0.7343   0.01899   0.01026   0.0015   0.1407   1.0000
   6.700   0.7415   0.01940   0.01060   0.0021   0.1354   1.0000
   6.800   0.7495   0.01967   0.01090   0.0027   0.1299   1.0000
   6.900   0.7569   0.02000   0.01117   0.0033   0.1254   1.0000
   7.000   0.7644   0.02044   0.01158   0.0039   0.1211   1.0000
   7.100   0.7725   0.02073   0.01191   0.0045   0.1168   1.0000
   7.200   0.7803   0.02104   0.01219   0.0050   0.1131   1.0000
   7.300   0.7877   0.02159   0.01262   0.0055   0.1097   1.0000
   7.400   0.7960   0.02190   0.01302   0.0061   0.1064   1.0000
   7.500   0.8042   0.02222   0.01337   0.0066   0.1031   1.0000
   7.600   0.8122   0.02256   0.01369   0.0071   0.1002   1.0000
   7.700   0.8203   0.02303   0.01408   0.0076   0.0977   1.0000
   7.800   0.8286   0.02363   0.01467   0.0080   0.0952   1.0000
   7.900   0.8369   0.02395   0.01510   0.0085   0.0927   1.0000
   8.000   0.8451   0.02431   0.01550   0.0090   0.0902   1.0000
   8.100   0.8534   0.02467   0.01585   0.0095   0.0880   1.0000
   8.200   0.8619   0.02512   0.01625   0.0098   0.0860   1.0000
   8.300   0.8709   0.02607   0.01709   0.0100   0.0840   1.0000
   8.400   0.8789   0.02641   0.01757   0.0106   0.0825   1.0000
   8.500   0.8871   0.02683   0.01809   0.0111   0.0807   1.0000
   8.600   0.8951   0.02726   0.01859   0.0116   0.0789   1.0000
   8.700   0.9033   0.02768   0.01903   0.0120   0.0772   1.0000
   8.800   0.9116   0.02811   0.01946   0.0124   0.0756   1.0000
   8.900   0.9202   0.02867   0.01997   0.0127   0.0742   1.0000
   9.000   0.9295   0.02988   0.02111   0.0127   0.0728   1.0000
   9.100   0.9365   0.03034   0.02173   0.0134   0.0719   1.0000
   9.200   0.9435   0.03090   0.02244   0.0141   0.0708   1.0000
   9.300   0.9506   0.03151   0.02317   0.0147   0.0697   1.0000
   9.400   0.9577   0.03210   0.02386   0.0152   0.0685   1.0000
   9.500   0.9651   0.03266   0.02447   0.0157   0.0673   1.0000
   9.600   0.9725   0.03318   0.02503   0.0161   0.0661   1.0000
   9.700   0.9799   0.03370   0.02557   0.0165   0.0651   1.0000
   9.800   0.9879   0.03434   0.02619   0.0168   0.0641   1.0000
   9.900   0.9959   0.03540   0.02723   0.0170   0.0632   1.0000
  10.000   1.0016   0.03675   0.02866   0.0174   0.0625   1.0000
  10.100   1.0056   0.03752   0.02963   0.0184   0.0621   1.0000
  10.200   1.0093   0.03840   0.03070   0.0193   0.0616   1.0000
  10.300   1.0124   0.03935   0.03184   0.0202   0.0610   1.0000
  10.400   1.0152   0.04036   0.03302   0.0211   0.0605   1.0000
  10.500   1.0175   0.04139   0.03421   0.0220   0.0599   1.0000
  10.600   1.0196   0.04242   0.03540   0.0229   0.0593   1.0000
  10.700   1.0215   0.04344   0.03655   0.0237   0.0587   1.0000
  10.800   1.0234   0.04442   0.03765   0.0245   0.0581   1.0000
  10.900   1.0256   0.04536   0.03869   0.0253   0.0576   1.0000
  11.000   1.0284   0.04624   0.03964   0.0259   0.0570   1.0000
  11.100   1.0320   0.04705   0.04049   0.0265   0.0564   1.0000
  11.200   1.0367   0.04782   0.04130   0.0270   0.0559   1.0000
  11.300   1.0410   0.04872   0.04222   0.0274   0.0555   1.0000
  11.400   1.0419   0.04985   0.04343   0.0281   0.0552   1.0000
  11.500   1.0421   0.05106   0.04471   0.0289   0.0550   1.0000
  11.600   1.0414   0.05234   0.04608   0.0296   0.0548   1.0000
  11.700   1.0392   0.05371   0.04754   0.0304   0.0546   1.0000
  11.800   1.0358   0.05513   0.04906   0.0312   0.0545   1.0000
  11.900   1.0300   0.05651   0.05055   0.0323   0.0545   1.0000
  12.000   1.0222   0.05788   0.05202   0.0335   0.0545   1.0000
  12.100   1.0114   0.05934   0.05362   0.0347   0.0546   1.0000
  12.200   0.9969   0.06110   0.05552   0.0356   0.0548   1.0000
  12.400   0.8852   0.07462   0.06978   0.0292   0.0583   1.0000
  12.500   0.8578   0.08045   0.07572   0.0247   0.0592   1.0000
  12.600   0.8336   0.08659   0.08193   0.0201   0.0603   1.0000
  12.700   0.8151   0.09214   0.08751   0.0163   0.0611   1.0000
  12.800   0.8024   0.09674   0.09212   0.0135   0.0616   1.0000
  12.900   0.7934   0.10063   0.09601   0.0114   0.0621   1.0000
  13.000   0.7870   0.10398   0.09936   0.0099   0.0624   1.0000
  13.100   0.7838   0.10660   0.10198   0.0091   0.0626   1.0000
  13.400   0.6637   0.15052   0.14581  -0.0182   0.0997   1.0000
  13.500   0.6689   0.15166   0.14696  -0.0180   0.0988   1.0000
  13.600   0.6754   0.15274   0.14805  -0.0175   0.0981   1.0000
  13.700   0.6833   0.15380   0.14913  -0.0167   0.0975   1.0000
  13.800   0.6931   0.15494   0.15028  -0.0154   0.0969   1.0000
  13.900   0.7057   0.15657   0.15195  -0.0132   0.0964   1.0000
  14.000   0.7038   0.15927   0.15462  -0.0145   0.0961   1.0000
  14.100   0.6908   0.16182   0.15713  -0.0184   0.0957   1.0000
  14.200   0.6703   0.16419   0.15946  -0.0240   0.0934   1.0000
  14.300   0.6689   0.16581   0.16106  -0.0253   0.0917   1.0000
  14.400   0.6701   0.16729   0.16255  -0.0261   0.0903   1.0000
  14.500   0.6725   0.16867   0.16392  -0.0267   0.0891   1.0000
  14.600   0.6759   0.16993   0.16519  -0.0270   0.0880   1.0000
  14.700   0.6806   0.17110   0.16636  -0.0270   0.0869   1.0000
  14.800   0.6877   0.17219   0.16747  -0.0266   0.0860   1.0000
  14.900   0.6991   0.17333   0.16862  -0.0252   0.0851   1.0000
  15.000   0.7130   0.17473   0.17006  -0.0229   0.0844   1.0000
