  
       XFOIL         Version 6.99
  
 Calculated polar for: NACA 0012                                       
  
 1 1 Reynolds number fixed          Mach number fixed         
  
 xtrf =   1.000 (top)        1.000 (bottom)  
 Mach =   0.000     Re =     0.064 e 6     Ncrit =   9.000
  
   alpha    CL        CD       CDp       CM     Top_Xtr  Bot_Xtr
  ------ -------- --------- --------- -------- -------- --------
   0.000   0.0000   0.01917   0.01060  -0.0000   1.0000   1.0000
   0.100  -0.0080   0.01918   0.01061   0.0023   1.0000   1.0000
   0.200  -0.0157   0.01921   0.01063   0.0045   1.0000   1.0000
   0.300  -0.0226   0.01925   0.01067   0.0066   1.0000   1.0000
   0.400  -0.0285   0.01932   0.01072   0.0086   1.0000   1.0000
   0.500  -0.0333   0.01940   0.01079   0.0103   1.0000   1.0000
   0.600  -0.0369   0.01951   0.01089   0.0119   1.0000   1.0000
   0.700  -0.0393   0.01964   0.01100   0.0133   1.0000   1.0000
   0.800  -0.0192   0.01988   0.01124   0.0108   0.9952   1.0000
   0.900   0.0121   0.02013   0.01151   0.0064   0.9871   1.0000
   1.000   0.0430   0.02035   0.01176   0.0021   0.9791   1.0000
   1.100   0.0754   0.02054   0.01198  -0.0023   0.9712   1.0000
   1.200   0.1041   0.02066   0.01213  -0.0060   0.9615   1.0000
   1.300   0.1374   0.02075   0.01228  -0.0104   0.9535   1.0000
   1.400   0.1679   0.02078   0.01236  -0.0142   0.9438   1.0000
   1.500   0.1989   0.02078   0.01241  -0.0180   0.9343   1.0000
   1.600   0.2377   0.02067   0.01238  -0.0230   0.9262   1.0000
   1.700   0.2648   0.02056   0.01234  -0.0259   0.9150   1.0000
   1.800   0.2980   0.02034   0.01218  -0.0296   0.9059   1.0000
   1.900   0.3223   0.02015   0.01205  -0.0317   0.8941   1.0000
   2.000   0.3422   0.01999   0.01194  -0.0329   0.8814   1.0000
   2.100   0.3627   0.01978   0.01178  -0.0341   0.8694   1.0000
   2.200   0.3833   0.01951   0.01155  -0.0350   0.8582   1.0000
   2.300   0.3948   0.01941   0.01147  -0.0346   0.8441   1.0000
   2.400   0.4061   0.01931   0.01138  -0.0341   0.8303   1.0000
   2.500   0.4171   0.01920   0.01127  -0.0334   0.8169   1.0000
   2.600   0.4280   0.01907   0.01114  -0.0327   0.8041   1.0000
   2.700   0.4384   0.01894   0.01101  -0.0318   0.7914   1.0000
   2.800   0.4463   0.01891   0.01097  -0.0307   0.7768   1.0000
   2.900   0.4543   0.01888   0.01093  -0.0295   0.7625   1.0000
   3.000   0.4624   0.01886   0.01089  -0.0284   0.7483   1.0000
   3.100   0.4706   0.01883   0.01083  -0.0273   0.7344   1.0000
   3.200   0.4789   0.01880   0.01077  -0.0262   0.7206   1.0000
   3.300   0.4873   0.01878   0.01069  -0.0250   0.7069   1.0000
   3.400   0.4948   0.01881   0.01070  -0.0239   0.6918   1.0000
   3.500   0.5024   0.01886   0.01072  -0.0228   0.6765   1.0000
   3.600   0.5101   0.01891   0.01074  -0.0217   0.6612   1.0000
   3.700   0.5178   0.01898   0.01075  -0.0207   0.6459   1.0000
   3.800   0.5256   0.01905   0.01077  -0.0196   0.6304   1.0000
   3.900   0.5333   0.01913   0.01080  -0.0186   0.6149   1.0000
   4.000   0.5411   0.01922   0.01083  -0.0176   0.5992   1.0000
   4.100   0.5488   0.01932   0.01087  -0.0166   0.5833   1.0000
   4.200   0.5565   0.01943   0.01092  -0.0156   0.5672   1.0000
   4.300   0.5642   0.01956   0.01098  -0.0146   0.5509   1.0000
   4.400   0.5718   0.01970   0.01106  -0.0137   0.5344   1.0000
   4.500   0.5794   0.01985   0.01114  -0.0127   0.5176   1.0000
   4.600   0.5869   0.02001   0.01123  -0.0118   0.5007   1.0000
   4.700   0.5943   0.02019   0.01133  -0.0109   0.4836   1.0000
   4.800   0.6016   0.02038   0.01144  -0.0100   0.4663   1.0000
   4.900   0.6089   0.02059   0.01157  -0.0091   0.4490   1.0000
   5.000   0.6162   0.02081   0.01171  -0.0082   0.4316   1.0000
   5.100   0.6234   0.02106   0.01186  -0.0073   0.4142   1.0000
   5.200   0.6306   0.02132   0.01203  -0.0064   0.3969   1.0000
   5.300   0.6377   0.02160   0.01223  -0.0055   0.3799   1.0000
   5.400   0.6449   0.02190   0.01243  -0.0047   0.3631   1.0000
   5.500   0.6520   0.02222   0.01266  -0.0039   0.3467   1.0000
   5.600   0.6591   0.02257   0.01292  -0.0031   0.3309   1.0000
   5.700   0.6663   0.02293   0.01320  -0.0023   0.3156   1.0000
   5.800   0.6735   0.02331   0.01350  -0.0015   0.3012   1.0000
   5.900   0.6809   0.02372   0.01381  -0.0008   0.2879   1.0000
   6.000   0.6887   0.02414   0.01407  -0.0001   0.2756   1.0000
   6.100   0.6959   0.02454   0.01446   0.0006   0.2631   1.0000
   6.200   0.7033   0.02501   0.01493   0.0013   0.2516   1.0000
   6.300   0.7114   0.02550   0.01531   0.0019   0.2417   1.0000
   6.400   0.7191   0.02594   0.01571   0.0025   0.2318   1.0000
   6.500   0.7268   0.02647   0.01625   0.0032   0.2226   1.0000
   6.600   0.7353   0.02695   0.01660   0.0037   0.2147   1.0000
   6.700   0.7429   0.02752   0.01726   0.0043   0.2068   1.0000
   6.800   0.7514   0.02800   0.01764   0.0048   0.1998   1.0000
   6.900   0.7593   0.02864   0.01832   0.0054   0.1931   1.0000
   7.000   0.7674   0.02918   0.01888   0.0059   0.1869   1.0000
   7.100   0.7768   0.02984   0.01938   0.0062   0.1816   1.0000
   7.200   0.7836   0.03046   0.02022   0.0070   0.1759   1.0000
   7.300   0.7919   0.03101   0.02075   0.0074   0.1708   1.0000
   7.400   0.8016   0.03178   0.02136   0.0076   0.1666   1.0000
   7.500   0.8079   0.03250   0.02235   0.0085   0.1624   1.0000
   7.600   0.8155   0.03316   0.02308   0.0090   0.1581   1.0000
   7.700   0.8243   0.03375   0.02360   0.0094   0.1542   1.0000
   7.800   0.8327   0.03468   0.02449   0.0097   0.1510   1.0000
   7.900   0.8382   0.03556   0.02564   0.0106   0.1481   1.0000
   8.000   0.8447   0.03641   0.02665   0.0113   0.1451   1.0000
   8.100   0.8526   0.03713   0.02740   0.0118   0.1420   1.0000
   8.200   0.8614   0.03782   0.02801   0.0120   0.1391   1.0000
   8.300   0.8687   0.03893   0.02911   0.0124   0.1367   1.0000
   8.400   0.8721   0.03998   0.03047   0.0134   0.1348   1.0000
   8.500   0.8759   0.04113   0.03185   0.0143   0.1330   1.0000
   8.600   0.8800   0.04229   0.03319   0.0151   0.1314   1.0000
   8.700   0.8845   0.04338   0.03442   0.0159   0.1296   1.0000
   8.800   0.8902   0.04433   0.03544   0.0164   0.1277   1.0000
   8.900   0.8993   0.04503   0.03607   0.0166   0.1254   1.0000
   9.000   0.9086   0.04616   0.03707   0.0166   0.1234   1.0000
   9.100   0.9096   0.04758   0.03869   0.0176   0.1224   1.0000
   9.200   0.9090   0.04902   0.04040   0.0187   0.1216   1.0000
   9.300   0.9083   0.05058   0.04218   0.0196   0.1211   1.0000
   9.400   0.9072   0.05223   0.04403   0.0205   0.1207   1.0000
   9.500   0.9054   0.05393   0.04594   0.0214   0.1204   1.0000
   9.600   0.9028   0.05569   0.04787   0.0222   0.1202   1.0000
   9.700   0.8992   0.05750   0.04985   0.0230   0.1200   1.0000
   9.800   0.8947   0.05936   0.05186   0.0238   0.1199   1.0000
   9.900   0.8887   0.06129   0.05394   0.0245   0.1200   1.0000
  10.000   0.8818   0.06328   0.05606   0.0251   0.1201   1.0000
  10.100   0.8742   0.06532   0.05820   0.0256   0.1203   1.0000
  10.200   0.8660   0.06738   0.06036   0.0260   0.1206   1.0000
  10.300   0.8574   0.06948   0.06252   0.0264   0.1209   1.0000
  10.400   0.8485   0.07152   0.06463   0.0267   0.1212   1.0000
  10.500   0.8395   0.07355   0.06670   0.0270   0.1216   1.0000
  10.600   0.8313   0.07566   0.06884   0.0270   0.1219   1.0000
  10.700   0.8240   0.07786   0.07107   0.0268   0.1222   1.0000
  10.800   0.8177   0.08015   0.07338   0.0264   0.1225   1.0000
  10.900   0.8128   0.08247   0.07571   0.0259   0.1228   1.0000
  11.000   0.8094   0.08481   0.07807   0.0254   0.1230   1.0000
  11.300   0.6270   0.13260   0.12574  -0.0158   0.2438   1.0000
  11.400   0.6086   0.13324   0.12631  -0.0178   0.2409   1.0000
  11.500   0.6057   0.13440   0.12746  -0.0184   0.2369   1.0000
  11.600   0.6103   0.13581   0.12888  -0.0184   0.2337   1.0000
  11.700   0.6194   0.13753   0.13062  -0.0180   0.2314   1.0000
  11.800   0.6372   0.14008   0.13323  -0.0168   0.2296   1.0000
  11.900   0.6413   0.14243   0.13557  -0.0170   0.2284   1.0000
  12.000   0.6210   0.14267   0.13574  -0.0194   0.2267   1.0000
  12.100   0.6132   0.14348   0.13652  -0.0205   0.2229   1.0000
  12.200   0.6152   0.14477   0.13781  -0.0208   0.2195   1.0000
  12.300   0.6239   0.14636   0.13943  -0.0204   0.2163   1.0000
  12.400   0.6601   0.15068   0.14384  -0.0173   0.2131   1.0000
  12.500   0.6432   0.15107   0.14418  -0.0196   0.2124   1.0000
  12.600   0.6272   0.15125   0.14430  -0.0217   0.2105   1.0000
  12.700   0.6222   0.15207   0.14510  -0.0227   0.2069   1.0000
  12.800   0.6249   0.15334   0.14638  -0.0229   0.2035   1.0000
  12.900   0.6326   0.15498   0.14804  -0.0226   0.2008   1.0000
  13.000   0.6461   0.15738   0.15046  -0.0218   0.1989   1.0000
  13.100   0.6694   0.16164   0.15477  -0.0201   0.1975   1.0000
  13.200   0.6525   0.16154   0.15462  -0.0225   0.1968   1.0000
  13.300   0.6377   0.16131   0.15433  -0.0246   0.1948   1.0000
  13.400   0.6342   0.16210   0.15511  -0.0256   0.1917   1.0000
  13.500   0.6362   0.16334   0.15636  -0.0260   0.1889   1.0000
  13.600   0.6419   0.16485   0.15788  -0.0260   0.1862   1.0000
  13.700   0.6559   0.16734   0.16039  -0.0251   0.1837   1.0000
  13.800   0.6759   0.17168   0.16477  -0.0237   0.1819   1.0000
  13.900   0.6623   0.17141   0.16446  -0.0259   0.1812   1.0000
  14.000   0.6510   0.17111   0.16411  -0.0278   0.1794   1.0000
  14.100   0.6484   0.17184   0.16483  -0.0289   0.1763   1.0000
  14.200   0.6508   0.17305   0.16605  -0.0293   0.1734   1.0000
  14.300   0.6562   0.17454   0.16755  -0.0293   0.1710   1.0000
  14.400   0.6653   0.17660   0.16963  -0.0289   0.1691   1.0000
  14.500   0.6840   0.18067   0.17376  -0.0277   0.1675   1.0000
  14.600   0.6914   0.18371   0.17679  -0.0277   0.1667   1.0000
  14.700   0.6785   0.18284   0.17587  -0.0299   0.1661   1.0000
  14.800   0.6690   0.18233   0.17532  -0.0319   0.1644   1.0000
  14.900   0.6671   0.18301   0.17599  -0.0331   0.1620   1.0000
  15.000   0.6688   0.18417   0.17715  -0.0337   0.1596   1.0000
