  
       XFOIL         Version 6.99
  
 Calculated polar for: NACA 0012                                       
  
 1 1 Reynolds number fixed          Mach number fixed         
  
 xtrf =   1.000 (top)        1.000 (bottom)  
 Mach =   0.000     Re =     0.200 e 6     Ncrit =   9.000
  
   alpha    CL        CD       CDp       CM     Top_Xtr  Bot_Xtr
  ------ -------- --------- --------- -------- -------- --------
   0.000   0.0000   0.01020   0.00520  -0.0000   0.9047   0.9047
   0.100   0.0128   0.01021   0.00521   0.0000   0.8976   0.9106
   0.200   0.0287   0.01021   0.00520  -0.0005   0.8924   0.9151
   0.300   0.0398   0.01022   0.00521  -0.0001   0.8841   0.9220
   0.400   0.0545   0.01022   0.00520  -0.0004   0.8774   0.9266
   0.500   0.0700   0.01025   0.00522  -0.0009   0.8697   0.9304
   0.600   0.0841   0.01026   0.00521  -0.0012   0.8615   0.9353
   0.700   0.0962   0.01027   0.00520  -0.0010   0.8529   0.9411
   0.800   0.1135   0.01029   0.00520  -0.0019   0.8442   0.9437
   0.900   0.1300   0.01032   0.00522  -0.0028   0.8345   0.9469
   1.000   0.1454   0.01034   0.00520  -0.0033   0.8254   0.9509
   1.100   0.1582   0.01037   0.00520  -0.0034   0.8143   0.9562
   1.200   0.1770   0.01039   0.00519  -0.0047   0.8038   0.9581
   1.300   0.1949   0.01042   0.00517  -0.0059   0.7925   0.9606
   1.400   0.2115   0.01044   0.00517  -0.0068   0.7802   0.9639
   1.500   0.2255   0.01048   0.00517  -0.0072   0.7684   0.9686
   1.600   0.2420   0.01051   0.00514  -0.0081   0.7562   0.9715
   1.700   0.2598   0.01054   0.00512  -0.0094   0.7427   0.9740
   1.800   0.2766   0.01058   0.00511  -0.0104   0.7289   0.9772
   1.900   0.2917   0.01062   0.00511  -0.0112   0.7153   0.9813
   2.000   0.3084   0.01066   0.00509  -0.0122   0.7012   0.9842
   2.100   0.3261   0.01069   0.00507  -0.0135   0.6865   0.9868
   2.200   0.3430   0.01073   0.00504  -0.0146   0.6717   0.9898
   2.400   0.3767   0.01082   0.00500  -0.0170   0.6408   0.9954
   2.500   0.3942   0.01085   0.00497  -0.0183   0.6246   0.9979
   2.600   0.4099   0.01089   0.00495  -0.0193   0.6087   1.0000
   2.700   0.4190   0.01092   0.00494  -0.0190   0.5951   1.0000
   2.800   0.4281   0.01095   0.00492  -0.0187   0.5815   1.0000
   2.900   0.4371   0.01100   0.00490  -0.0183   0.5681   1.0000
   3.000   0.4462   0.01105   0.00489  -0.0180   0.5547   1.0000
   3.100   0.4553   0.01110   0.00488  -0.0177   0.5409   1.0000
   3.200   0.4643   0.01115   0.00489  -0.0174   0.5269   1.0000
   3.300   0.4734   0.01121   0.00489  -0.0170   0.5131   1.0000
   3.400   0.4825   0.01127   0.00490  -0.0167   0.4995   1.0000
   3.500   0.4915   0.01134   0.00492  -0.0163   0.4858   1.0000
   3.600   0.5004   0.01143   0.00494  -0.0160   0.4723   1.0000
   3.700   0.5094   0.01150   0.00497  -0.0156   0.4582   1.0000
   3.800   0.5183   0.01158   0.00500  -0.0153   0.4439   1.0000
   3.900   0.5271   0.01167   0.00503  -0.0149   0.4300   1.0000
   4.000   0.5357   0.01176   0.00508  -0.0145   0.4162   1.0000
   4.100   0.5443   0.01187   0.00512  -0.0140   0.4022   1.0000
   4.200   0.5529   0.01198   0.00517  -0.0136   0.3883   1.0000
   4.400   0.5698   0.01221   0.00530  -0.0127   0.3598   1.0000
   4.500   0.5783   0.01233   0.00537  -0.0123   0.3454   1.0000
   4.600   0.5867   0.01246   0.00544  -0.0118   0.3311   1.0000
   4.700   0.5950   0.01260   0.00552  -0.0114   0.3169   1.0000
   4.800   0.6032   0.01274   0.00561  -0.0109   0.3028   1.0000
   4.900   0.6114   0.01290   0.00570  -0.0104   0.2886   1.0000
   5.000   0.6194   0.01307   0.00580  -0.0099   0.2746   1.0000
   5.200   0.6354   0.01342   0.00603  -0.0089   0.2467   1.0000
   5.300   0.6434   0.01360   0.00615  -0.0083   0.2332   1.0000
   5.400   0.6513   0.01379   0.00629  -0.0078   0.2201   1.0000
   5.500   0.6591   0.01400   0.00643  -0.0073   0.2078   1.0000
   5.600   0.6666   0.01424   0.00658  -0.0067   0.1964   1.0000
   5.700   0.6745   0.01444   0.00674  -0.0061   0.1850   1.0000
   5.800   0.6823   0.01466   0.00691  -0.0056   0.1744   1.0000
   5.900   0.6896   0.01492   0.00709  -0.0049   0.1652   1.0000
   6.000   0.6975   0.01513   0.00728  -0.0044   0.1560   1.0000
   6.100   0.7049   0.01539   0.00749  -0.0038   0.1482   1.0000
   6.200   0.7126   0.01563   0.00769  -0.0032   0.1407   1.0000
   6.300   0.7199   0.01590   0.00792  -0.0025   0.1341   1.0000
   6.400   0.7278   0.01611   0.00812  -0.0020   0.1278   1.0000
   6.500   0.7345   0.01647   0.00838  -0.0012   0.1224   1.0000
   6.600   0.7428   0.01665   0.00860  -0.0007   0.1171   1.0000
   6.700   0.7503   0.01690   0.00882  -0.0001   0.1125   1.0000
   6.800   0.7570   0.01728   0.00913   0.0006   0.1083   1.0000
   6.900   0.7654   0.01747   0.00937   0.0012   0.1042   1.0000
   7.000   0.7732   0.01770   0.00959   0.0017   0.1005   1.0000
   7.100   0.7797   0.01809   0.00990   0.0024   0.0972   1.0000
   7.200   0.7874   0.01838   0.01022   0.0031   0.0942   1.0000
   7.300   0.7955   0.01861   0.01047   0.0036   0.0911   1.0000
   7.400   0.8033   0.01885   0.01071   0.0042   0.0883   1.0000
   7.500   0.8105   0.01919   0.01100   0.0048   0.0858   1.0000
   7.600   0.8173   0.01968   0.01145   0.0055   0.0834   1.0000
   7.700   0.8257   0.01990   0.01173   0.0060   0.0812   1.0000
   7.800   0.8338   0.02016   0.01202   0.0065   0.0789   1.0000
   7.900   0.8417   0.02043   0.01229   0.0071   0.0769   1.0000
   8.000   0.8494   0.02076   0.01259   0.0076   0.0751   1.0000
   8.100   0.8563   0.02136   0.01311   0.0082   0.0732   1.0000
   8.200   0.8644   0.02170   0.01350   0.0087   0.0716   1.0000
   8.300   0.8728   0.02196   0.01383   0.0092   0.0699   1.0000
   8.400   0.8809   0.02226   0.01416   0.0097   0.0682   1.0000
   8.500   0.8890   0.02256   0.01447   0.0101   0.0667   1.0000
   8.600   0.8971   0.02290   0.01479   0.0106   0.0654   1.0000
   8.700   0.9050   0.02335   0.01521   0.0110   0.0641   1.0000
   8.800   0.9128   0.02422   0.01602   0.0114   0.0627   1.0000
   8.900   0.9209   0.02448   0.01638   0.0119   0.0617   1.0000
   9.000   0.9291   0.02481   0.01678   0.0124   0.0606   1.0000
   9.100   0.9371   0.02517   0.01720   0.0129   0.0593   1.0000
   9.200   0.9451   0.02553   0.01759   0.0133   0.0581   1.0000
   9.300   0.9531   0.02587   0.01795   0.0137   0.0570   1.0000
   9.400   0.9611   0.02625   0.01831   0.0141   0.0560   1.0000
   9.500   0.9692   0.02673   0.01877   0.0144   0.0551   1.0000
   9.600   0.9776   0.02757   0.01957   0.0147   0.0542   1.0000
   9.700   0.9853   0.02833   0.02040   0.0151   0.0534   1.0000
   9.800   0.9925   0.02876   0.02094   0.0157   0.0528   1.0000
   9.900   0.9997   0.02924   0.02153   0.0162   0.0520   1.0000
  10.000   1.0068   0.02975   0.02212   0.0168   0.0512   1.0000
  10.100   1.0140   0.03024   0.02268   0.0173   0.0504   1.0000
  10.200   1.0211   0.03071   0.02320   0.0178   0.0496   1.0000
  10.300   1.0281   0.03116   0.02369   0.0182   0.0489   1.0000
  10.400   1.0353   0.03161   0.02415   0.0187   0.0482   1.0000
  10.500   1.0428   0.03208   0.02462   0.0190   0.0475   1.0000
  10.600   1.0505   0.03273   0.02525   0.0193   0.0469   1.0000
  10.700   1.0579   0.03392   0.02644   0.0194   0.0462   1.0000
  10.800   1.0628   0.03486   0.02750   0.0201   0.0458   1.0000
  10.900   1.0669   0.03551   0.02830   0.0209   0.0455   1.0000
  11.000   1.0708   0.03626   0.02920   0.0218   0.0451   1.0000
  11.100   1.0742   0.03708   0.03016   0.0226   0.0447   1.0000
  11.200   1.0773   0.03794   0.03115   0.0234   0.0443   1.0000
  11.300   1.0800   0.03882   0.03216   0.0243   0.0439   1.0000
  11.400   1.0823   0.03970   0.03316   0.0251   0.0435   1.0000
  11.500   1.0845   0.04057   0.03414   0.0259   0.0431   1.0000
  11.600   1.0865   0.04141   0.03508   0.0267   0.0427   1.0000
  11.700   1.0886   0.04222   0.03597   0.0275   0.0423   1.0000
  11.800   1.0911   0.04297   0.03678   0.0282   0.0419   1.0000
  11.900   1.0945   0.04361   0.03747   0.0289   0.0415   1.0000
  12.000   1.0993   0.04416   0.03802   0.0293   0.0411   1.0000
  12.100   1.1018   0.04487   0.03877   0.0300   0.0408   1.0000
  12.200   1.1042   0.04554   0.03947   0.0307   0.0404   1.0000
  12.300   1.1066   0.04629   0.04023   0.0313   0.0401   1.0000
  12.400   1.1076   0.04727   0.04124   0.0320   0.0398   1.0000
  12.500   1.1075   0.04853   0.04254   0.0327   0.0396   1.0000
  12.600   1.1044   0.04998   0.04407   0.0335   0.0394   1.0000
  12.700   1.0992   0.05155   0.04574   0.0344   0.0393   1.0000
  12.800   1.0925   0.05288   0.04716   0.0354   0.0393   1.0000
  12.900   1.0853   0.05415   0.04854   0.0362   0.0392   1.0000
  13.000   1.0776   0.05553   0.05003   0.0369   0.0392   1.0000
  13.100   1.0697   0.05702   0.05162   0.0373   0.0392   1.0000
  13.200   1.0615   0.05862   0.05333   0.0374   0.0392   1.0000
  13.300   1.0530   0.06036   0.05517   0.0374   0.0392   1.0000
  13.400   1.0445   0.06222   0.05712   0.0371   0.0392   1.0000
  13.500   1.0354   0.06422   0.05922   0.0365   0.0392   1.0000
  13.600   1.0264   0.06636   0.06144   0.0358   0.0392   1.0000
  13.700   1.0172   0.06864   0.06381   0.0349   0.0392   1.0000
  13.800   1.0077   0.07107   0.06632   0.0337   0.0393   1.0000
  14.300   0.4944   0.14495   0.14125  -0.0030   0.0762   1.0000
  14.400   0.4968   0.14577   0.14208  -0.0031   0.0755   1.0000
  14.500   0.5011   0.14656   0.14286  -0.0029   0.0748   1.0000
  14.600   0.5081   0.14735   0.14367  -0.0025   0.0742   1.0000
  14.700   0.5194   0.14804   0.14437  -0.0014   0.0736   1.0000
  14.800   0.5390   0.14991   0.14624   0.0009   0.0728   1.0000
  14.900   0.5309   0.15131   0.14764  -0.0004   0.0727   1.0000
  15.000   0.5218   0.15261   0.14893  -0.0020   0.0725   1.0000
