  
       XFOIL         Version 6.99
  
 Calculated polar for: NACA 0012                                       
  
 1 1 Reynolds number fixed          Mach number fixed         
  
 xtrf =   1.000 (top)        1.000 (bottom)  
 Mach =   0.000     Re =     0.041 e 6     Ncrit =   9.000
  
   alpha    CL        CD       CDp       CM     Top_Xtr  Bot_Xtr
  ------ -------- --------- --------- -------- -------- --------
   0.000   0.0000   0.02233   0.01140  -0.0000   1.0000   1.0000
   0.100  -0.0035   0.02233   0.01140   0.0018   1.0000   1.0000
   0.200  -0.0068   0.02236   0.01142   0.0035   1.0000   1.0000
   0.300  -0.0099   0.02240   0.01146   0.0052   1.0000   1.0000
   0.400  -0.0126   0.02246   0.01150   0.0068   1.0000   1.0000
   0.500  -0.0148   0.02253   0.01157   0.0083   1.0000   1.0000
   0.600  -0.0165   0.02262   0.01164   0.0097   1.0000   1.0000
   0.700  -0.0177   0.02273   0.01174   0.0111   1.0000   1.0000
   0.800  -0.0184   0.02286   0.01185   0.0123   1.0000   1.0000
   0.900  -0.0186   0.02300   0.01197   0.0135   1.0000   1.0000
   1.000  -0.0184   0.02316   0.01212   0.0145   1.0000   1.0000
   1.100  -0.0177   0.02333   0.01228   0.0155   1.0000   1.0000
   1.200  -0.0164   0.02353   0.01246   0.0163   1.0000   1.0000
   1.300  -0.0147   0.02374   0.01265   0.0170   1.0000   1.0000
   1.400  -0.0126   0.02397   0.01287   0.0177   1.0000   1.0000
   1.500  -0.0101   0.02421   0.01311   0.0182   1.0000   1.0000
   1.600  -0.0073   0.02448   0.01337   0.0187   1.0000   1.0000
   1.700  -0.0043   0.02476   0.01364   0.0191   1.0000   1.0000
   1.800  -0.0010   0.02506   0.01394   0.0194   1.0000   1.0000
   1.900   0.0025   0.02537   0.01425   0.0197   1.0000   1.0000
   2.000   0.0110   0.02576   0.01465   0.0190   0.9981   1.0000
   2.100   0.0479   0.02651   0.01547   0.0131   0.9852   1.0000
   2.200   0.0834   0.02718   0.01621   0.0077   0.9719   1.0000
   2.300   0.1169   0.02774   0.01685   0.0028   0.9580   1.0000
   2.400   0.1488   0.02822   0.01742  -0.0017   0.9437   1.0000
   2.500   0.1797   0.02862   0.01792  -0.0058   0.9291   1.0000
   2.600   0.2106   0.02895   0.01835  -0.0098   0.9143   1.0000
   2.700   0.2424   0.02922   0.01872  -0.0137   0.8991   1.0000
   2.800   0.2766   0.02938   0.01902  -0.0177   0.8836   1.0000
   2.900   0.3146   0.02942   0.01922  -0.0222   0.8673   1.0000
   3.000   0.3500   0.02933   0.01928  -0.0259   0.8509   1.0000
   3.100   0.3812   0.02917   0.01925  -0.0286   0.8345   1.0000
   3.200   0.4092   0.02895   0.01916  -0.0305   0.8182   1.0000
   3.300   0.4337   0.02870   0.01902  -0.0317   0.8019   1.0000
   3.400   0.4549   0.02845   0.01885  -0.0322   0.7858   1.0000
   3.500   0.4733   0.02821   0.01868  -0.0322   0.7697   1.0000
   3.600   0.4893   0.02800   0.01851  -0.0317   0.7538   1.0000
   3.700   0.5035   0.02780   0.01836  -0.0309   0.7379   1.0000
   3.800   0.5162   0.02762   0.01820  -0.0298   0.7220   1.0000
   3.900   0.5277   0.02747   0.01806  -0.0286   0.7060   1.0000
   4.000   0.5382   0.02736   0.01794  -0.0272   0.6899   1.0000
   4.100   0.5479   0.02728   0.01785  -0.0258   0.6736   1.0000
   4.200   0.5567   0.02725   0.01781  -0.0243   0.6569   1.0000
   4.300   0.5653   0.02726   0.01778  -0.0228   0.6401   1.0000
   4.400   0.5733   0.02729   0.01778  -0.0213   0.6230   1.0000
   4.500   0.5810   0.02737   0.01784  -0.0198   0.6055   1.0000
   4.600   0.5886   0.02748   0.01791  -0.0183   0.5880   1.0000
   4.700   0.5960   0.02761   0.01800  -0.0169   0.5701   1.0000
   4.800   0.6034   0.02776   0.01811  -0.0155   0.5521   1.0000
   4.900   0.6108   0.02794   0.01823  -0.0141   0.5340   1.0000
   5.000   0.6182   0.02813   0.01835  -0.0127   0.5159   1.0000
   5.100   0.6257   0.02834   0.01850  -0.0114   0.4979   1.0000
   5.200   0.6332   0.02858   0.01865  -0.0101   0.4800   1.0000
   5.300   0.6407   0.02884   0.01883  -0.0089   0.4623   1.0000
   5.400   0.6481   0.02914   0.01907  -0.0077   0.4451   1.0000
   5.500   0.6555   0.02947   0.01931  -0.0066   0.4281   1.0000
   5.600   0.6628   0.02983   0.01960  -0.0055   0.4115   1.0000
   5.700   0.6701   0.03026   0.01996  -0.0044   0.3957   1.0000
   5.800   0.6773   0.03071   0.02035  -0.0034   0.3804   1.0000
   5.900   0.6845   0.03118   0.02076  -0.0024   0.3657   1.0000
   6.000   0.6921   0.03168   0.02120  -0.0015   0.3522   1.0000
   6.100   0.7005   0.03214   0.02153  -0.0007   0.3394   1.0000
   6.200   0.7079   0.03265   0.02199   0.0002   0.3268   1.0000
   6.300   0.7141   0.03336   0.02279   0.0010   0.3152   1.0000
   6.400   0.7219   0.03398   0.02336   0.0017   0.3048   1.0000
   6.500   0.7303   0.03451   0.02381   0.0025   0.2944   1.0000
   6.600   0.7359   0.03535   0.02476   0.0033   0.2851   1.0000
   6.700   0.7462   0.03587   0.02506   0.0038   0.2764   1.0000
   6.800   0.7502   0.03686   0.02631   0.0047   0.2685   1.0000
   6.900   0.7609   0.03736   0.02657   0.0051   0.2605   1.0000
   7.000   0.7639   0.03847   0.02799   0.0060   0.2539   1.0000
   7.100   0.7728   0.03912   0.02857   0.0066   0.2471   1.0000
   7.200   0.7785   0.04016   0.02969   0.0073   0.2416   1.0000
   7.300   0.7829   0.04121   0.03092   0.0080   0.2360   1.0000
   7.400   0.7938   0.04176   0.03130   0.0084   0.2299   1.0000
   7.500   0.7968   0.04307   0.03282   0.0092   0.2260   1.0000
   7.600   0.7993   0.04441   0.03438   0.0100   0.2222   1.0000
   7.700   0.8054   0.04537   0.03540   0.0106   0.2178   1.0000
   7.800   0.8174   0.04601   0.03582   0.0109   0.2127   1.0000
   7.900   0.8163   0.04763   0.03775   0.0118   0.2104   1.0000
   8.000   0.8162   0.04921   0.03956   0.0126   0.2080   1.0000
   8.100   0.8171   0.05074   0.04125   0.0133   0.2056   1.0000
   8.200   0.8195   0.05215   0.04278   0.0139   0.2033   1.0000
   8.300   0.8305   0.05281   0.04334   0.0143   0.1993   1.0000
   8.400   0.8359   0.05413   0.04466   0.0147   0.1967   1.0000
   8.500   0.8318   0.05607   0.04683   0.0154   0.1958   1.0000
   8.600   0.8271   0.05808   0.04902   0.0160   0.1951   1.0000
   8.700   0.8220   0.06014   0.05125   0.0165   0.1946   1.0000
   8.800   0.8162   0.06228   0.05353   0.0169   0.1943   1.0000
   8.900   0.8097   0.06450   0.05586   0.0172   0.1942   1.0000
   9.000   0.8026   0.06679   0.05824   0.0173   0.1944   1.0000
   9.100   0.7952   0.06914   0.06066   0.0174   0.1948   1.0000
   9.200   0.7878   0.07152   0.06310   0.0173   0.1953   1.0000
   9.300   0.7808   0.07391   0.06554   0.0171   0.1958   1.0000
   9.400   0.7748   0.07630   0.06795   0.0168   0.1964   1.0000
   9.500   0.7697   0.07867   0.07034   0.0165   0.1969   1.0000
   9.600   0.7657   0.08097   0.07266   0.0162   0.1974   1.0000
  10.400   0.5541   0.12591   0.11712  -0.0262   0.4006   1.0000
  10.500   0.5584   0.12738   0.11860  -0.0262   0.3956   1.0000
  10.600   0.5834   0.13136   0.12265  -0.0264   0.3904   1.0000
  10.700   0.5690   0.13121   0.12245  -0.0265   0.3885   1.0000
  10.800   0.5618   0.13156   0.12276  -0.0264   0.3831   1.0000
  10.900   0.5725   0.13357   0.12481  -0.0264   0.3769   1.0000
  11.000   0.5878   0.13686   0.12815  -0.0266   0.3737   1.0000
  11.100   0.5728   0.13643   0.12765  -0.0267   0.3708   1.0000
  11.200   0.5703   0.13719   0.12841  -0.0268   0.3656   1.0000
  11.300   0.5779   0.13906   0.13030  -0.0268   0.3613   1.0000
  11.400   0.5995   0.14318   0.13448  -0.0269   0.3576   1.0000
  11.500   0.5846   0.14263   0.13387  -0.0272   0.3556   1.0000
  11.600   0.5784   0.14291   0.13413  -0.0274   0.3505   1.0000
  11.700   0.5863   0.14471   0.13595  -0.0273   0.3450   1.0000
  11.800   0.6049   0.14857   0.13985  -0.0273   0.3410   1.0000
  11.900   0.5913   0.14798   0.13921  -0.0278   0.3387   1.0000
  12.000   0.5873   0.14843   0.13965  -0.0279   0.3336   1.0000
  12.100   0.5953   0.15032   0.14156  -0.0279   0.3286   1.0000
  12.200   0.6172   0.15478   0.14609  -0.0279   0.3253   1.0000
  12.300   0.6066   0.15460   0.14585  -0.0284   0.3238   1.0000
  12.400   0.5974   0.15430   0.14552  -0.0288   0.3201   1.0000
  12.500   0.5990   0.15541   0.14662  -0.0290   0.3155   1.0000
  12.600   0.6105   0.15792   0.14917  -0.0289   0.3111   1.0000
  12.700   0.6228   0.16135   0.15261  -0.0290   0.3084   1.0000
  12.800   0.6109   0.16054   0.15176  -0.0296   0.3061   1.0000
  12.900   0.6076   0.16092   0.15212  -0.0300   0.3016   1.0000
  13.000   0.6143   0.16265   0.15387  -0.0300   0.2967   1.0000
  13.100   0.6396   0.16821   0.15950  -0.0296   0.2927   1.0000
  13.200   0.6270   0.16716   0.15841  -0.0304   0.2914   1.0000
  13.300   0.6191   0.16675   0.15796  -0.0311   0.2882   1.0000
  13.400   0.6199   0.16769   0.15890  -0.0314   0.2841   1.0000
  13.500   0.6263   0.16950   0.16073  -0.0315   0.2805   1.0000
  13.600   0.6434   0.17363   0.16491  -0.0312   0.2773   1.0000
  13.700   0.6436   0.17504   0.16629  -0.0318   0.2759   1.0000
  13.800   0.6342   0.17416   0.16537  -0.0327   0.2737   1.0000
  13.900   0.6322   0.17457   0.16577  -0.0332   0.2698   1.0000
  14.000   0.6366   0.17601   0.16722  -0.0334   0.2658   1.0000
  14.100   0.6513   0.17956   0.17082  -0.0330   0.2618   1.0000
  14.200   0.6573   0.18221   0.17346  -0.0333   0.2600   1.0000
  14.300   0.6484   0.18118   0.17240  -0.0344   0.2582   1.0000
  14.400   0.6457   0.18134   0.17254  -0.0351   0.2546   1.0000
  14.500   0.6489   0.18257   0.17377  -0.0355   0.2508   1.0000
  14.600   0.6573   0.18484   0.17607  -0.0354   0.2474   1.0000
  14.700   0.6763   0.19031   0.18161  -0.0349   0.2449   1.0000
  14.800   0.6713   0.19018   0.18143  -0.0358   0.2440   1.0000
  14.900   0.6639   0.18917   0.18039  -0.0370   0.2422   1.0000
  15.000   0.6622   0.18941   0.18061  -0.0378   0.2391   1.0000
