  
       XFOIL         Version 6.99
  
 Calculated polar for: NACA 0012                                       
  
 1 1 Reynolds number fixed          Mach number fixed         
  
 xtrf =   1.000 (top)        1.000 (bottom)  
 Mach =   0.000     Re =     0.053 e 6     Ncrit =   9.000
  
   alpha    CL        CD       CDp       CM     Top_Xtr  Bot_Xtr
  ------ -------- --------- --------- -------- -------- --------
   0.000   0.0000   0.02038   0.01089  -0.0000   1.0000   1.0000
   0.100  -0.0059   0.02039   0.01090   0.0020   1.0000   1.0000
   0.200  -0.0115   0.02041   0.01092   0.0040   1.0000   1.0000
   0.300  -0.0167   0.02045   0.01095   0.0060   1.0000   1.0000
   0.400  -0.0212   0.02052   0.01101   0.0078   1.0000   1.0000
   0.500  -0.0248   0.02060   0.01107   0.0094   1.0000   1.0000
   0.600  -0.0277   0.02070   0.01116   0.0110   1.0000   1.0000
   0.700  -0.0296   0.02082   0.01126   0.0124   1.0000   1.0000
   0.800  -0.0309   0.02096   0.01139   0.0136   1.0000   1.0000
   0.900  -0.0316   0.02112   0.01153   0.0147   1.0000   1.0000
   1.000  -0.0315   0.02130   0.01169   0.0157   1.0000   1.0000
   1.100  -0.0307   0.02149   0.01187   0.0166   1.0000   1.0000
   1.200  -0.0292   0.02171   0.01208   0.0173   1.0000   1.0000
   1.300   0.0023   0.02213   0.01253   0.0127   0.9912   1.0000
   1.400   0.0358   0.02255   0.01298   0.0078   0.9819   1.0000
   1.500   0.0683   0.02288   0.01336   0.0032   0.9716   1.0000
   1.600   0.0985   0.02315   0.01368  -0.0009   0.9605   1.0000
   1.700   0.1298   0.02338   0.01398  -0.0051   0.9497   1.0000
   1.800   0.1688   0.02356   0.01423  -0.0104   0.9401   1.0000
   1.900   0.1968   0.02366   0.01440  -0.0138   0.9276   1.0000
   2.000   0.2277   0.02371   0.01454  -0.0175   0.9156   1.0000
   2.100   0.2698   0.02363   0.01457  -0.0230   0.9050   1.0000
   2.200   0.3055   0.02345   0.01450  -0.0271   0.8930   1.0000
   2.300   0.3303   0.02333   0.01447  -0.0292   0.8795   1.0000
   2.400   0.3556   0.02314   0.01436  -0.0312   0.8662   1.0000
   2.500   0.3807   0.02290   0.01418  -0.0330   0.8533   1.0000
   2.600   0.4059   0.02256   0.01391  -0.0345   0.8409   1.0000
   2.700   0.4198   0.02244   0.01383  -0.0343   0.8265   1.0000
   2.800   0.4324   0.02233   0.01376  -0.0338   0.8120   1.0000
   2.900   0.4444   0.02222   0.01367  -0.0332   0.7978   1.0000
   3.000   0.4559   0.02210   0.01356  -0.0324   0.7837   1.0000
   3.100   0.4672   0.02197   0.01343  -0.0315   0.7699   1.0000
   3.200   0.4782   0.02182   0.01327  -0.0305   0.7564   1.0000
   3.300   0.4871   0.02176   0.01321  -0.0293   0.7418   1.0000
   3.400   0.4951   0.02175   0.01319  -0.0281   0.7266   1.0000
   3.500   0.5031   0.02175   0.01317  -0.0268   0.7115   1.0000
   3.600   0.5111   0.02175   0.01316  -0.0256   0.6963   1.0000
   3.700   0.5191   0.02176   0.01315  -0.0243   0.6810   1.0000
   3.800   0.5271   0.02178   0.01313  -0.0230   0.6656   1.0000
   3.900   0.5350   0.02182   0.01312  -0.0218   0.6500   1.0000
   4.000   0.5429   0.02186   0.01313  -0.0206   0.6343   1.0000
   4.100   0.5507   0.02193   0.01313  -0.0193   0.6182   1.0000
   4.200   0.5585   0.02201   0.01316  -0.0182   0.6019   1.0000
   4.300   0.5661   0.02211   0.01320  -0.0170   0.5854   1.0000
   4.400   0.5737   0.02222   0.01326  -0.0158   0.5685   1.0000
   4.500   0.5812   0.02236   0.01333  -0.0147   0.5515   1.0000
   4.600   0.5887   0.02251   0.01342  -0.0136   0.5342   1.0000
   4.700   0.5961   0.02268   0.01351  -0.0125   0.5166   1.0000
   4.800   0.6034   0.02286   0.01362  -0.0114   0.4990   1.0000
   4.900   0.6108   0.02307   0.01375  -0.0103   0.4813   1.0000
   5.000   0.6181   0.02329   0.01388  -0.0093   0.4636   1.0000
   5.100   0.6254   0.02353   0.01403  -0.0083   0.4459   1.0000
   5.200   0.6326   0.02379   0.01419  -0.0073   0.4284   1.0000
   5.300   0.6399   0.02408   0.01439  -0.0063   0.4111   1.0000
   5.400   0.6471   0.02439   0.01460  -0.0054   0.3941   1.0000
   5.500   0.6543   0.02472   0.01484  -0.0044   0.3774   1.0000
   5.600   0.6614   0.02508   0.01511  -0.0035   0.3612   1.0000
   5.700   0.6686   0.02547   0.01542  -0.0027   0.3456   1.0000
   5.800   0.6759   0.02589   0.01578  -0.0018   0.3307   1.0000
   5.900   0.6831   0.02632   0.01614  -0.0010   0.3165   1.0000
   6.000   0.6907   0.02677   0.01651  -0.0003   0.3034   1.0000
   6.100   0.6989   0.02723   0.01681   0.0004   0.2916   1.0000
   6.200   0.7061   0.02771   0.01730   0.0012   0.2794   1.0000
   6.300   0.7134   0.02825   0.01786   0.0019   0.2682   1.0000
   6.400   0.7219   0.02878   0.01825   0.0024   0.2587   1.0000
   6.500   0.7293   0.02932   0.01884   0.0031   0.2488   1.0000
   6.600   0.7371   0.02993   0.01942   0.0038   0.2402   1.0000
   6.700   0.7452   0.03046   0.01991   0.0043   0.2318   1.0000
   6.800   0.7530   0.03116   0.02064   0.0049   0.2246   1.0000
   6.900   0.7608   0.03175   0.02124   0.0055   0.2173   1.0000
   7.000   0.7693   0.03244   0.02186   0.0060   0.2111   1.0000
   7.100   0.7760   0.03316   0.02274   0.0067   0.2047   1.0000
   7.200   0.7853   0.03377   0.02324   0.0071   0.1992   1.0000
   7.300   0.7919   0.03465   0.02425   0.0078   0.1942   1.0000
   7.400   0.7986   0.03542   0.02515   0.0085   0.1891   1.0000
   7.500   0.8077   0.03604   0.02568   0.0088   0.1843   1.0000
   7.600   0.8150   0.03701   0.02669   0.0093   0.1805   1.0000
   7.700   0.8197   0.03803   0.02797   0.0102   0.1769   1.0000
   7.800   0.8263   0.03889   0.02892   0.0109   0.1731   1.0000
   7.900   0.8354   0.03955   0.02949   0.0112   0.1692   1.0000
   8.000   0.8429   0.04059   0.03051   0.0116   0.1661   1.0000
   8.100   0.8454   0.04181   0.03204   0.0126   0.1637   1.0000
   8.200   0.8487   0.04306   0.03351   0.0134   0.1615   1.0000
   8.300   0.8528   0.04423   0.03486   0.0142   0.1592   1.0000
   8.400   0.8586   0.04521   0.03591   0.0148   0.1567   1.0000
   8.500   0.8694   0.04587   0.03642   0.0149   0.1536   1.0000
   8.600   0.8752   0.04717   0.03772   0.0153   0.1514   1.0000
   8.700   0.8744   0.04866   0.03951   0.0164   0.1503   1.0000
   8.800   0.8737   0.05025   0.04134   0.0173   0.1493   1.0000
   8.900   0.8728   0.05192   0.04322   0.0182   0.1485   1.0000
   9.000   0.8714   0.05365   0.04514   0.0190   0.1479   1.0000
   9.100   0.8692   0.05545   0.04711   0.0197   0.1474   1.0000
   9.200   0.8658   0.05731   0.04914   0.0204   0.1471   1.0000
   9.300   0.8611   0.05926   0.05125   0.0211   0.1469   1.0000
   9.400   0.8552   0.06130   0.05343   0.0217   0.1469   1.0000
   9.500   0.8481   0.06343   0.05569   0.0221   0.1470   1.0000
   9.600   0.8398   0.06563   0.05800   0.0225   0.1474   1.0000
   9.700   0.8308   0.06792   0.06038   0.0228   0.1479   1.0000
   9.800   0.8212   0.07024   0.06278   0.0229   0.1484   1.0000
   9.900   0.8118   0.07259   0.06518   0.0228   0.1491   1.0000
  10.000   0.8023   0.07484   0.06746   0.0229   0.1497   1.0000
  10.100   0.7936   0.07711   0.06976   0.0228   0.1502   1.0000
  10.200   0.7862   0.07946   0.07212   0.0224   0.1508   1.0000
  10.300   0.7801   0.08185   0.07452   0.0219   0.1512   1.0000
  10.400   0.7755   0.08426   0.07694   0.0213   0.1516   1.0000
  10.500   0.7727   0.08664   0.07932   0.0207   0.1519   1.0000
  10.900   0.5868   0.12884   0.12121  -0.0205   0.2988   1.0000
  11.000   0.6014   0.13090   0.12332  -0.0199   0.2947   1.0000
  11.200   0.6047   0.13459   0.12699  -0.0206   0.2914   1.0000
  11.300   0.5918   0.13488   0.12723  -0.0215   0.2872   1.0000
  11.400   0.5929   0.13616   0.12851  -0.0217   0.2833   1.0000
  11.500   0.6011   0.13790   0.13028  -0.0215   0.2800   1.0000
  11.600   0.6302   0.14205   0.13449  -0.0202   0.2765   1.0000
  11.700   0.6134   0.14211   0.13450  -0.0216   0.2755   1.0000
  11.800   0.6005   0.14225   0.13459  -0.0226   0.2720   1.0000
  11.900   0.6008   0.14334   0.13568  -0.0229   0.2674   1.0000
  12.000   0.6127   0.14531   0.13768  -0.0224   0.2631   1.0000
  12.100   0.6374   0.14948   0.14191  -0.0213   0.2605   1.0000
  12.200   0.6194   0.14913   0.14150  -0.0229   0.2592   1.0000
  12.300   0.6087   0.14927   0.14160  -0.0239   0.2556   1.0000
  12.400   0.6093   0.15041   0.14273  -0.0243   0.2519   1.0000
  12.500   0.6151   0.15203   0.14437  -0.0243   0.2489   1.0000
  12.600   0.6287   0.15461   0.14699  -0.0238   0.2462   1.0000
  12.700   0.6429   0.15809   0.15050  -0.0234   0.2444   1.0000
  12.800   0.6276   0.15763   0.14998  -0.0249   0.2430   1.0000
  12.900   0.6193   0.15775   0.15008  -0.0259   0.2396   1.0000
  13.000   0.6205   0.15886   0.15119  -0.0263   0.2357   1.0000
  13.100   0.6288   0.16067   0.15301  -0.0261   0.2321   1.0000
  13.200   0.6588   0.16613   0.15854  -0.0244   0.2288   1.0000
  13.300   0.6446   0.16560   0.15796  -0.0260   0.2280   1.0000
  13.400   0.6331   0.16516   0.15748  -0.0274   0.2258   1.0000
  13.500   0.6306   0.16581   0.15812  -0.0281   0.2222   1.0000
  13.600   0.6340   0.16714   0.15945  -0.0284   0.2189   1.0000
  13.700   0.6416   0.16902   0.16135  -0.0282   0.2162   1.0000
  13.800   0.6573   0.17248   0.16485  -0.0276   0.2141   1.0000
  13.900   0.6667   0.17574   0.16812  -0.0276   0.2128   1.0000
  14.000   0.6538   0.17479   0.16711  -0.0292   0.2118   1.0000
  14.100   0.6462   0.17456   0.16685  -0.0305   0.2093   1.0000
  14.200   0.6461   0.17544   0.16774  -0.0312   0.2061   1.0000
  14.300   0.6499   0.17680   0.16910  -0.0315   0.2031   1.0000
  14.400   0.6584   0.17883   0.17115  -0.0313   0.2003   1.0000
  14.500   0.6863   0.18543   0.17783  -0.0296   0.1975   1.0000
  14.600   0.6745   0.18434   0.17669  -0.0312   0.1969   1.0000
  14.700   0.6650   0.18350   0.17581  -0.0329   0.1954   1.0000
  14.800   0.6618   0.18376   0.17605  -0.0340   0.1926   1.0000
  14.900   0.6636   0.18483   0.17712  -0.0346   0.1895   1.0000
  15.000   0.6684   0.18631   0.17861  -0.0348   0.1868   1.0000
