  
       XFOIL         Version 6.99
  
 Calculated polar for: NACA 0012                                       
  
 1 1 Reynolds number fixed          Mach number fixed         
  
 xtrf =   1.000 (top)        1.000 (bottom)  
 Mach =   0.000     Re =     0.107 e 6     Ncrit =   9.000
  
   alpha    CL        CD       CDp       CM     Top_Xtr  Bot_Xtr
  ------ -------- --------- --------- -------- -------- --------
   0.000  -0.0000   0.01644   0.00990   0.0000   0.9869   0.9869
   0.100   0.0330   0.01643   0.00989  -0.0044   0.9841   0.9904
   0.200   0.0645   0.01638   0.00986  -0.0086   0.9805   0.9938
   0.300   0.0968   0.01628   0.00977  -0.0129   0.9757   0.9960
   0.400   0.1301   0.01616   0.00967  -0.0174   0.9721   0.9985
   0.500   0.1604   0.01601   0.00953  -0.0213   0.9673   1.0000
   0.600   0.1862   0.01583   0.00938  -0.0243   0.9603   1.0000
   0.700   0.2114   0.01564   0.00921  -0.0272   0.9535   1.0000
   0.800   0.2329   0.01545   0.00903  -0.0293   0.9442   1.0000
   0.900   0.2529   0.01525   0.00886  -0.0310   0.9345   1.0000
   1.000   0.2729   0.01505   0.00867  -0.0326   0.9252   1.0000
   1.100   0.2869   0.01488   0.00852  -0.0332   0.9127   1.0000
   1.200   0.3002   0.01472   0.00836  -0.0334   0.9005   1.0000
   1.300   0.3125   0.01456   0.00819  -0.0335   0.8888   1.0000
   1.400   0.3226   0.01442   0.00804  -0.0330   0.8761   1.0000
   1.500   0.3311   0.01432   0.00792  -0.0324   0.8624   1.0000
   1.600   0.3394   0.01422   0.00781  -0.0316   0.8491   1.0000
   1.700   0.3476   0.01412   0.00769  -0.0308   0.8363   1.0000
   1.800   0.3558   0.01403   0.00756  -0.0299   0.8241   1.0000
   1.900   0.3634   0.01397   0.00748  -0.0290   0.8101   1.0000
   2.000   0.3711   0.01392   0.00741  -0.0282   0.7963   1.0000
   2.100   0.3790   0.01388   0.00733  -0.0274   0.7829   1.0000
   2.200   0.3871   0.01384   0.00725  -0.0265   0.7698   1.0000
   2.300   0.3952   0.01381   0.00716  -0.0257   0.7570   1.0000
   2.400   0.4033   0.01381   0.00712  -0.0249   0.7428   1.0000
   2.500   0.4115   0.01381   0.00708  -0.0242   0.7285   1.0000
   2.600   0.4198   0.01382   0.00704  -0.0235   0.7145   1.0000
   2.700   0.4282   0.01383   0.00702  -0.0228   0.7007   1.0000
   2.800   0.4366   0.01386   0.00698  -0.0221   0.6872   1.0000
   2.900   0.4449   0.01389   0.00695  -0.0214   0.6737   1.0000
   3.000   0.4532   0.01393   0.00695  -0.0207   0.6590   1.0000
   3.100   0.4615   0.01398   0.00695  -0.0201   0.6443   1.0000
   3.200   0.4699   0.01404   0.00696  -0.0194   0.6299   1.0000
   3.300   0.4783   0.01410   0.00697  -0.0188   0.6155   1.0000
   3.400   0.4866   0.01418   0.00698  -0.0181   0.6013   1.0000
   3.500   0.4950   0.01426   0.00700  -0.0175   0.5871   1.0000
   3.700   0.5115   0.01443   0.00705  -0.0162   0.5579   1.0000
   3.800   0.5197   0.01452   0.00710  -0.0156   0.5428   1.0000
   3.900   0.5279   0.01463   0.00715  -0.0150   0.5277   1.0000
   4.000   0.5361   0.01473   0.00720  -0.0143   0.5125   1.0000
   4.100   0.5442   0.01485   0.00726  -0.0137   0.4974   1.0000
   4.200   0.5522   0.01497   0.00732  -0.0131   0.4822   1.0000
   4.300   0.5602   0.01510   0.00739  -0.0124   0.4670   1.0000
   4.400   0.5681   0.01524   0.00746  -0.0118   0.4516   1.0000
   4.500   0.5760   0.01539   0.00754  -0.0111   0.4361   1.0000
   4.600   0.5837   0.01555   0.00763  -0.0105   0.4205   1.0000
   4.700   0.5914   0.01572   0.00772  -0.0098   0.4048   1.0000
   4.800   0.5991   0.01589   0.00782  -0.0092   0.3889   1.0000
   4.900   0.6066   0.01608   0.00794  -0.0085   0.3730   1.0000
   5.000   0.6141   0.01628   0.00806  -0.0078   0.3569   1.0000
   5.100   0.6215   0.01650   0.00819  -0.0071   0.3409   1.0000
   5.200   0.6288   0.01673   0.00834  -0.0065   0.3250   1.0000
   5.300   0.6361   0.01697   0.00851  -0.0058   0.3092   1.0000
   5.400   0.6434   0.01722   0.00868  -0.0051   0.2935   1.0000
   5.500   0.6506   0.01748   0.00887  -0.0044   0.2782   1.0000
   5.600   0.6578   0.01776   0.00908  -0.0038   0.2635   1.0000
   5.700   0.6651   0.01806   0.00931  -0.0031   0.2494   1.0000
   5.800   0.6723   0.01837   0.00955  -0.0024   0.2362   1.0000
   5.900   0.6794   0.01871   0.00979  -0.0017   0.2244   1.0000
   6.000   0.6864   0.01906   0.01003  -0.0011   0.2137   1.0000
   6.100   0.6940   0.01937   0.01034  -0.0004   0.2026   1.0000
   6.200   0.7013   0.01974   0.01064   0.0002   0.1932   1.0000
   6.300   0.7086   0.02008   0.01091   0.0009   0.1845   1.0000
   6.400   0.7162   0.02046   0.01126   0.0015   0.1761   1.0000
   6.500   0.7236   0.02082   0.01154   0.0021   0.1690   1.0000
   6.600   0.7314   0.02122   0.01194   0.0027   0.1620   1.0000
   6.700   0.7391   0.02156   0.01224   0.0033   0.1556   1.0000
   6.800   0.7469   0.02205   0.01264   0.0038   0.1502   1.0000
   6.900   0.7550   0.02239   0.01304   0.0044   0.1444   1.0000
   7.000   0.7629   0.02278   0.01336   0.0049   0.1396   1.0000
   7.100   0.7711   0.02331   0.01386   0.0054   0.1352   1.0000
   7.200   0.7792   0.02366   0.01429   0.0060   0.1305   1.0000
   7.300   0.7874   0.02406   0.01463   0.0064   0.1265   1.0000
   7.400   0.7963   0.02477   0.01517   0.0067   0.1229   1.0000
   7.500   0.8043   0.02512   0.01569   0.0073   0.1195   1.0000
   7.600   0.8125   0.02552   0.01615   0.0079   0.1159   1.0000
   7.700   0.8209   0.02594   0.01653   0.0083   0.1128   1.0000
   7.800   0.8300   0.02661   0.01707   0.0085   0.1099   1.0000
   7.900   0.8383   0.02721   0.01778   0.0090   0.1075   1.0000
   8.000   0.8465   0.02770   0.01838   0.0096   0.1049   1.0000
   8.100   0.8546   0.02818   0.01893   0.0101   0.1023   1.0000
   8.200   0.8630   0.02864   0.01938   0.0105   0.0999   1.0000
   8.300   0.8720   0.02923   0.01988   0.0107   0.0977   1.0000
   8.400   0.8807   0.03018   0.02082   0.0109   0.0957   1.0000
   8.500   0.8879   0.03074   0.02156   0.0116   0.0940   1.0000
   8.600   0.8953   0.03139   0.02235   0.0122   0.0923   1.0000
   8.700   0.9030   0.03203   0.02308   0.0128   0.0906   1.0000
   8.800   0.9107   0.03261   0.02372   0.0133   0.0888   1.0000
   8.900   0.9185   0.03317   0.02431   0.0137   0.0872   1.0000
   9.000   0.9270   0.03381   0.02490   0.0139   0.0856   1.0000
   9.100   0.9357   0.03515   0.02617   0.0139   0.0840   1.0000
   9.200   0.9405   0.03582   0.02705   0.0149   0.0831   1.0000
   9.300   0.9454   0.03666   0.02810   0.0157   0.0821   1.0000
   9.400   0.9503   0.03761   0.02924   0.0166   0.0812   1.0000
   9.500   0.9549   0.03858   0.03039   0.0174   0.0803   1.0000
   9.600   0.9594   0.03956   0.03152   0.0181   0.0794   1.0000
   9.700   0.9639   0.04049   0.03259   0.0189   0.0784   1.0000
   9.800   0.9689   0.04136   0.03355   0.0195   0.0774   1.0000
   9.900   0.9751   0.04211   0.03434   0.0200   0.0763   1.0000
  10.000   0.9829   0.04275   0.03496   0.0202   0.0752   1.0000
