  
       XFOIL         Version 6.99
  
 Calculated polar for: NACA 0012                                       
  
 1 1 Reynolds number fixed          Mach number fixed         
  
 xtrf =   1.000 (top)        1.000 (bottom)  
 Mach =   0.000     Re =     0.084 e 6     Ncrit =   9.000
  
   alpha    CL        CD       CDp       CM     Top_Xtr  Bot_Xtr
  ------ -------- --------- --------- -------- -------- --------
   0.000   0.0000   0.01774   0.01030  -0.0000   1.0000   1.0000
   0.100  -0.0118   0.01775   0.01031   0.0027   1.0000   1.0000
   0.200  -0.0229   0.01777   0.01033   0.0053   1.0000   1.0000
   0.300  -0.0076   0.01784   0.01040   0.0035   0.9961   1.0000
   0.400   0.0216   0.01792   0.01048  -0.0004   0.9898   1.0000
   0.500   0.0513   0.01797   0.01054  -0.0043   0.9837   1.0000
   0.600   0.0793   0.01798   0.01057  -0.0079   0.9762   1.0000
   0.700   0.1102   0.01798   0.01058  -0.0120   0.9706   1.0000
   0.800   0.1368   0.01793   0.01056  -0.0152   0.9621   1.0000
   0.900   0.1695   0.01784   0.01051  -0.0194   0.9566   1.0000
   1.000   0.1962   0.01774   0.01043  -0.0225   0.9479   1.0000
   1.100   0.2281   0.01756   0.01030  -0.0264   0.9416   1.0000
   1.200   0.2507   0.01742   0.01019  -0.0285   0.9313   1.0000
   1.300   0.2788   0.01719   0.01000  -0.0315   0.9239   1.0000
   1.400   0.2966   0.01703   0.00988  -0.0326   0.9118   1.0000
   1.500   0.3142   0.01686   0.00973  -0.0336   0.9002   1.0000
   1.600   0.3324   0.01666   0.00954  -0.0345   0.8897   1.0000
   1.700   0.3453   0.01651   0.00940  -0.0345   0.8769   1.0000
   1.800   0.3562   0.01639   0.00929  -0.0341   0.8635   1.0000
   1.900   0.3667   0.01627   0.00918  -0.0336   0.8506   1.0000
   2.000   0.3769   0.01615   0.00904  -0.0329   0.8383   1.0000
   2.100   0.3862   0.01604   0.00892  -0.0321   0.8255   1.0000
   2.200   0.3942   0.01599   0.00885  -0.0312   0.8115   1.0000
   2.300   0.4022   0.01593   0.00878  -0.0302   0.7978   1.0000
   2.400   0.4104   0.01588   0.00870  -0.0293   0.7844   1.0000
   2.500   0.4186   0.01583   0.00861  -0.0283   0.7716   1.0000
   2.600   0.4266   0.01580   0.00854  -0.0273   0.7583   1.0000
   2.700   0.4343   0.01580   0.00852  -0.0263   0.7438   1.0000
   2.800   0.4421   0.01581   0.00850  -0.0254   0.7296   1.0000
   2.900   0.4500   0.01582   0.00847  -0.0245   0.7155   1.0000
   3.000   0.4580   0.01584   0.00844  -0.0235   0.7016   1.0000
   3.100   0.4661   0.01586   0.00841  -0.0226   0.6878   1.0000
   3.200   0.4742   0.01590   0.00838  -0.0217   0.6739   1.0000
   3.300   0.4821   0.01595   0.00840  -0.0209   0.6589   1.0000
   3.400   0.4901   0.01601   0.00841  -0.0201   0.6439   1.0000
   3.500   0.4981   0.01608   0.00845  -0.0193   0.6289   1.0000
   3.600   0.5061   0.01616   0.00847  -0.0185   0.6140   1.0000
   3.700   0.5141   0.01625   0.00850  -0.0176   0.5991   1.0000
   3.800   0.5221   0.01634   0.00853  -0.0169   0.5840   1.0000
   3.900   0.5301   0.01644   0.00856  -0.0161   0.5690   1.0000
   4.000   0.5381   0.01655   0.00860  -0.0153   0.5539   1.0000
   4.100   0.5460   0.01667   0.00864  -0.0145   0.5386   1.0000
   4.200   0.5539   0.01679   0.00869  -0.0137   0.5231   1.0000
   4.300   0.5617   0.01693   0.00878  -0.0130   0.5071   1.0000
   4.400   0.5694   0.01707   0.00886  -0.0122   0.4909   1.0000
   4.500   0.5770   0.01722   0.00895  -0.0114   0.4747   1.0000
   4.600   0.5846   0.01738   0.00904  -0.0107   0.4583   1.0000
   4.700   0.5921   0.01756   0.00914  -0.0099   0.4418   1.0000
   4.800   0.5996   0.01774   0.00925  -0.0091   0.4252   1.0000
   4.900   0.6070   0.01795   0.00937  -0.0084   0.4085   1.0000
   5.000   0.6144   0.01816   0.00950  -0.0076   0.3919   1.0000
   5.100   0.6216   0.01839   0.00964  -0.0069   0.3752   1.0000
   5.200   0.6288   0.01864   0.00981  -0.0061   0.3586   1.0000
   5.300   0.6360   0.01890   0.00998  -0.0053   0.3421   1.0000
   5.400   0.6431   0.01918   0.01017  -0.0046   0.3259   1.0000
   5.500   0.6502   0.01948   0.01038  -0.0039   0.3100   1.0000
   5.600   0.6573   0.01979   0.01061  -0.0031   0.2946   1.0000
   5.700   0.6644   0.02011   0.01086  -0.0024   0.2797   1.0000
   5.800   0.6716   0.02046   0.01114  -0.0017   0.2656   1.0000
   5.900   0.6788   0.02082   0.01143  -0.0010   0.2526   1.0000
   6.000   0.6861   0.02121   0.01171  -0.0003   0.2410   1.0000
   6.100   0.6935   0.02159   0.01200   0.0003   0.2301   1.0000
   6.200   0.7009   0.02196   0.01238   0.0010   0.2189   1.0000
   6.300   0.7086   0.02240   0.01272   0.0016   0.2098   1.0000
   6.400   0.7163   0.02279   0.01306   0.0022   0.2007   1.0000
   6.500   0.7241   0.02324   0.01349   0.0028   0.1925   1.0000
   6.600   0.7319   0.02364   0.01382   0.0034   0.1849   1.0000
   6.700   0.7400   0.02414   0.01431   0.0039   0.1781   1.0000
   6.800   0.7480   0.02456   0.01471   0.0045   0.1714   1.0000
   6.900   0.7566   0.02513   0.01514   0.0048   0.1659   1.0000
   7.000   0.7644   0.02554   0.01570   0.0055   0.1598   1.0000
   7.100   0.7728   0.02600   0.01608   0.0059   0.1548   1.0000
   7.200   0.7817   0.02665   0.01666   0.0063   0.1503   1.0000
   7.300   0.7895   0.02712   0.01727   0.0070   0.1455   1.0000
   7.400   0.7978   0.02757   0.01770   0.0074   0.1412   1.0000
   7.500   0.8075   0.02832   0.01826   0.0075   0.1374   1.0000
   7.600   0.8150   0.02887   0.01900   0.0082   0.1340   1.0000
   7.700   0.8230   0.02943   0.01967   0.0088   0.1304   1.0000
   7.800   0.8312   0.02994   0.02019   0.0093   0.1271   1.0000
   7.900   0.8406   0.03060   0.02072   0.0094   0.1241   1.0000
   8.000   0.8484   0.03142   0.02163   0.0099   0.1215   1.0000
   8.100   0.8554   0.03209   0.02249   0.0107   0.1189   1.0000
   8.200   0.8631   0.03279   0.02330   0.0112   0.1164   1.0000
   8.300   0.8711   0.03342   0.02398   0.0117   0.1140   1.0000
   8.400   0.8794   0.03404   0.02457   0.0120   0.1118   1.0000
   8.500   0.8888   0.03508   0.02548   0.0121   0.1096   1.0000
   8.600   0.8939   0.03591   0.02654   0.0130   0.1079   1.0000
   8.700   0.8989   0.03676   0.02762   0.0138   0.1062   1.0000
   8.800   0.9044   0.03770   0.02874   0.0146   0.1047   1.0000
   8.900   0.9099   0.03867   0.02986   0.0153   0.1033   1.0000
   9.000   0.9158   0.03957   0.03087   0.0160   0.1018   1.0000
   9.100   0.9226   0.04038   0.03174   0.0164   0.1003   1.0000
   9.200   0.9306   0.04111   0.03245   0.0167   0.0987   1.0000
   9.300   0.9385   0.04205   0.03333   0.0169   0.0972   1.0000
   9.400   0.9435   0.04359   0.03489   0.0173   0.0960   1.0000
   9.500   0.9444   0.04466   0.03625   0.0185   0.0953   1.0000
   9.600   0.9451   0.04592   0.03774   0.0196   0.0946   1.0000
   9.700   0.9455   0.04730   0.03935   0.0206   0.0940   1.0000
   9.800   0.9453   0.04878   0.04103   0.0215   0.0937   1.0000
   9.900   0.9444   0.05033   0.04277   0.0225   0.0934   1.0000
  10.000   0.9426   0.05192   0.04454   0.0234   0.0932   1.0000
