  
       XFOIL         Version 6.99
  
 Calculated polar for: NACA 0012                                       
  
 1 1 Reynolds number fixed          Mach number fixed         
  
 xtrf =   1.000 (top)        1.000 (bottom)  
 Mach =   0.000     Re =     0.056 e 6     Ncrit =   9.000
  
   alpha    CL        CD       CDp       CM     Top_Xtr  Bot_Xtr
  ------ -------- --------- --------- -------- -------- --------
   0.000   0.0000   0.01998   0.01079  -0.0000   1.0000   1.0000
   0.100  -0.0065   0.01999   0.01080   0.0021   1.0000   1.0000
   0.200  -0.0128   0.02001   0.01082   0.0042   1.0000   1.0000
   0.300  -0.0185   0.02006   0.01086   0.0062   1.0000   1.0000
   0.400  -0.0234   0.02012   0.01091   0.0080   1.0000   1.0000
   0.500  -0.0274   0.02020   0.01098   0.0097   1.0000   1.0000
   0.600  -0.0305   0.02031   0.01107   0.0113   1.0000   1.0000
   0.700  -0.0326   0.02043   0.01117   0.0127   1.0000   1.0000
   0.800  -0.0340   0.02057   0.01130   0.0139   1.0000   1.0000
   0.900  -0.0347   0.02074   0.01145   0.0150   1.0000   1.0000
   1.000  -0.0345   0.02092   0.01161   0.0160   1.0000   1.0000
   1.100  -0.0169   0.02122   0.01192   0.0138   0.9955   1.0000
   1.200   0.0156   0.02157   0.01231   0.0091   0.9864   1.0000
   1.300   0.0471   0.02189   0.01266   0.0047   0.9770   1.0000
   1.400   0.0800   0.02217   0.01298   0.0001   0.9679   1.0000
   1.500   0.1121   0.02238   0.01325  -0.0042   0.9578   1.0000
   1.600   0.1412   0.02254   0.01346  -0.0079   0.9468   1.0000
   1.700   0.1755   0.02265   0.01363  -0.0124   0.9370   1.0000
   1.800   0.2105   0.02267   0.01375  -0.0169   0.9266   1.0000
   1.900   0.2411   0.02267   0.01381  -0.0205   0.9149   1.0000
   2.000   0.2805   0.02252   0.01377  -0.0254   0.9048   1.0000
   2.100   0.3128   0.02232   0.01366  -0.0289   0.8932   1.0000
   2.200   0.3358   0.02218   0.01359  -0.0307   0.8800   1.0000
   2.300   0.3595   0.02198   0.01346  -0.0324   0.8672   1.0000
   2.400   0.3834   0.02171   0.01325  -0.0339   0.8549   1.0000
   2.500   0.4032   0.02147   0.01305  -0.0347   0.8422   1.0000
   2.600   0.4157   0.02136   0.01298  -0.0343   0.8278   1.0000
   2.700   0.4278   0.02125   0.01288  -0.0338   0.8138   1.0000
   2.800   0.4395   0.02113   0.01279  -0.0331   0.8000   1.0000
   2.900   0.4509   0.02100   0.01266  -0.0323   0.7865   1.0000
   3.000   0.4622   0.02084   0.01249  -0.0314   0.7735   1.0000
   3.100   0.4708   0.02080   0.01244  -0.0303   0.7590   1.0000
   3.200   0.4788   0.02078   0.01242  -0.0291   0.7441   1.0000
   3.300   0.4869   0.02076   0.01239  -0.0279   0.7294   1.0000
   3.400   0.4951   0.02075   0.01236  -0.0266   0.7146   1.0000
   3.500   0.5032   0.02074   0.01233  -0.0254   0.6999   1.0000
   3.600   0.5113   0.02074   0.01230  -0.0242   0.6851   1.0000
   3.700   0.5195   0.02075   0.01226  -0.0230   0.6703   1.0000
   3.800   0.5276   0.02077   0.01223  -0.0218   0.6552   1.0000
   3.900   0.5357   0.02081   0.01220  -0.0206   0.6401   1.0000
   4.000   0.5432   0.02089   0.01223  -0.0194   0.6239   1.0000
   4.100   0.5508   0.02098   0.01227  -0.0183   0.6077   1.0000
   4.200   0.5584   0.02108   0.01232  -0.0172   0.5913   1.0000
   4.300   0.5659   0.02119   0.01237  -0.0161   0.5747   1.0000
   4.400   0.5735   0.02132   0.01244  -0.0150   0.5580   1.0000
   4.500   0.5811   0.02146   0.01251  -0.0139   0.5411   1.0000
   4.600   0.5886   0.02162   0.01258  -0.0129   0.5240   1.0000
   4.700   0.5961   0.02179   0.01266  -0.0118   0.5069   1.0000
   4.800   0.6035   0.02198   0.01277  -0.0108   0.4896   1.0000
   4.900   0.6107   0.02220   0.01292  -0.0098   0.4716   1.0000
   5.000   0.6178   0.02243   0.01308  -0.0088   0.4537   1.0000
   5.100   0.6249   0.02268   0.01325  -0.0079   0.4359   1.0000
   5.200   0.6320   0.02295   0.01344  -0.0069   0.4182   1.0000
   5.300   0.6391   0.02324   0.01366  -0.0060   0.4007   1.0000
   5.400   0.6463   0.02356   0.01388  -0.0051   0.3837   1.0000
   5.500   0.6534   0.02389   0.01412  -0.0042   0.3671   1.0000
   5.600   0.6606   0.02424   0.01438  -0.0033   0.3510   1.0000
   5.700   0.6679   0.02462   0.01467  -0.0025   0.3358   1.0000
   5.800   0.6753   0.02502   0.01496  -0.0017   0.3212   1.0000
   5.900   0.6829   0.02542   0.01523  -0.0010   0.3077   1.0000
   6.000   0.6903   0.02585   0.01561  -0.0002   0.2943   1.0000
   6.100   0.6975   0.02633   0.01608   0.0006   0.2816   1.0000
   6.200   0.7050   0.02682   0.01654   0.0013   0.2700   1.0000
   6.300   0.7136   0.02730   0.01684   0.0018   0.2599   1.0000
   6.400   0.7207   0.02782   0.01744   0.0026   0.2493   1.0000
   6.500   0.7286   0.02838   0.01796   0.0032   0.2402   1.0000
   6.600   0.7367   0.02887   0.01838   0.0037   0.2315   1.0000
   6.700   0.7444   0.02952   0.01908   0.0044   0.2235   1.0000
   6.800   0.7528   0.03005   0.01955   0.0049   0.2161   1.0000
   6.900   0.7606   0.03073   0.02025   0.0055   0.2093   1.0000
   7.000   0.7683   0.03132   0.02089   0.0061   0.2025   1.0000
   7.100   0.7779   0.03200   0.02140   0.0063   0.1971   1.0000
   7.200   0.7840   0.03275   0.02241   0.0072   0.1915   1.0000
   7.300   0.7922   0.03336   0.02300   0.0077   0.1860   1.0000
   7.400   0.8014   0.03412   0.02363   0.0080   0.1815   1.0000
   7.500   0.8069   0.03498   0.02477   0.0089   0.1771   1.0000
   7.600   0.8143   0.03575   0.02561   0.0094   0.1729   1.0000
   7.700   0.8234   0.03641   0.02618   0.0098   0.1689   1.0000
   7.800   0.8305   0.03739   0.02720   0.0103   0.1655   1.0000
   7.900   0.8349   0.03839   0.02847   0.0112   0.1623   1.0000
   8.000   0.8407   0.03932   0.02955   0.0119   0.1591   1.0000
   8.100   0.8483   0.04015   0.03040   0.0124   0.1562   1.0000
   8.200   0.8577   0.04096   0.03112   0.0126   0.1533   1.0000
   8.300   0.8633   0.04218   0.03242   0.0132   0.1511   1.0000
   8.400   0.8649   0.04342   0.03397   0.0142   0.1492   1.0000
   8.500   0.8670   0.04469   0.03548   0.0152   0.1472   1.0000
   8.600   0.8697   0.04594   0.03690   0.0160   0.1453   1.0000
   8.700   0.8731   0.04717   0.03827   0.0167   0.1436   1.0000
   8.800   0.8769   0.04840   0.03961   0.0173   0.1422   1.0000
   8.900   0.8825   0.04950   0.04075   0.0178   0.1405   1.0000
   9.000   0.8946   0.05031   0.04139   0.0178   0.1382   1.0000
   9.100   0.8975   0.05190   0.04304   0.0183   0.1370   1.0000
   9.200   0.8950   0.05353   0.04492   0.0193   0.1364   1.0000
   9.300   0.8920   0.05524   0.04686   0.0203   0.1358   1.0000
   9.400   0.8883   0.05703   0.04884   0.0211   0.1354   1.0000
   9.500   0.8838   0.05889   0.05089   0.0219   0.1351   1.0000
   9.600   0.8784   0.06083   0.05298   0.0226   0.1350   1.0000
   9.700   0.8724   0.06283   0.05512   0.0232   0.1350   1.0000
   9.800   0.8660   0.06487   0.05728   0.0237   0.1351   1.0000
   9.900   0.8592   0.06696   0.05946   0.0241   0.1354   1.0000
  10.000   0.8525   0.06907   0.06165   0.0244   0.1357   1.0000
