  
       XFOIL         Version 6.99
  
 Calculated polar for: NACA 0012                                       
  
 1 1 Reynolds number fixed          Mach number fixed         
  
 xtrf =   1.000 (top)        1.000 (bottom)  
 Mach =   0.000     Re =     0.021 e 6     Ncrit =   9.000
  
   alpha    CL        CD       CDp       CM     Top_Xtr  Bot_Xtr
  ------ -------- --------- --------- -------- -------- --------
   0.000   0.0000   0.02870   0.01318  -0.0000   1.0000   1.0000
   0.100   0.0004   0.02871   0.01318   0.0012   1.0000   1.0000
   0.200   0.0009   0.02873   0.01320   0.0025   1.0000   1.0000
   0.300   0.0014   0.02876   0.01323   0.0037   1.0000   1.0000
   0.400   0.0021   0.02881   0.01327   0.0049   1.0000   1.0000
   0.500   0.0028   0.02886   0.01332   0.0061   1.0000   1.0000
   0.600   0.0036   0.02894   0.01338   0.0073   1.0000   1.0000
   0.700   0.0046   0.02902   0.01345   0.0084   1.0000   1.0000
   0.800   0.0057   0.02912   0.01354   0.0095   1.0000   1.0000
   0.900   0.0069   0.02923   0.01364   0.0105   1.0000   1.0000
   1.000   0.0082   0.02936   0.01376   0.0115   1.0000   1.0000
   1.100   0.0098   0.02949   0.01388   0.0125   1.0000   1.0000
   1.200   0.0115   0.02965   0.01402   0.0134   1.0000   1.0000
   1.300   0.0135   0.02981   0.01418   0.0142   1.0000   1.0000
   1.400   0.0157   0.02999   0.01435   0.0150   1.0000   1.0000
   1.500   0.0180   0.03019   0.01454   0.0158   1.0000   1.0000
   1.600   0.0206   0.03040   0.01474   0.0164   1.0000   1.0000
   1.700   0.0233   0.03062   0.01496   0.0171   1.0000   1.0000
   1.800   0.0262   0.03086   0.01519   0.0176   1.0000   1.0000
   1.900   0.0292   0.03111   0.01545   0.0182   1.0000   1.0000
   2.000   0.0324   0.03138   0.01572   0.0186   1.0000   1.0000
   2.100   0.0357   0.03167   0.01601   0.0190   1.0000   1.0000
   2.200   0.0391   0.03197   0.01631   0.0194   1.0000   1.0000
   2.300   0.0426   0.03229   0.01663   0.0197   1.0000   1.0000
   2.400   0.0461   0.03262   0.01697   0.0200   1.0000   1.0000
   2.500   0.0498   0.03297   0.01733   0.0202   1.0000   1.0000
   2.600   0.0534   0.03333   0.01771   0.0204   1.0000   1.0000
   2.700   0.0572   0.03372   0.01810   0.0206   1.0000   1.0000
   2.800   0.0610   0.03412   0.01851   0.0207   1.0000   1.0000
   2.900   0.0648   0.03453   0.01895   0.0208   1.0000   1.0000
   3.000   0.0686   0.03497   0.01940   0.0208   1.0000   1.0000
   3.100   0.0725   0.03542   0.01987   0.0208   1.0000   1.0000
   3.200   0.0764   0.03589   0.02036   0.0207   1.0000   1.0000
   3.300   0.0803   0.03638   0.02088   0.0207   1.0000   1.0000
   3.400   0.0842   0.03689   0.02140   0.0206   1.0000   1.0000
   3.500   0.0882   0.03741   0.02195   0.0204   1.0000   1.0000
   3.600   0.0921   0.03795   0.02252   0.0203   1.0000   1.0000
   3.700   0.0960   0.03851   0.02310   0.0201   1.0000   1.0000
   3.800   0.0999   0.03909   0.02371   0.0198   1.0000   1.0000
   3.900   0.1038   0.03969   0.02434   0.0196   1.0000   1.0000
   4.000   0.1077   0.04031   0.02498   0.0193   1.0000   1.0000
   4.100   0.1115   0.04094   0.02565   0.0190   1.0000   1.0000
   4.200   0.1154   0.04160   0.02633   0.0187   1.0000   1.0000
   4.300   0.1192   0.04227   0.02703   0.0183   1.0000   1.0000
   4.400   0.1230   0.04296   0.02776   0.0180   1.0000   1.0000
   4.500   0.1277   0.04371   0.02854   0.0174   0.9994   1.0000
   4.600   0.1848   0.04670   0.03182   0.0061   0.9655   1.0000
   4.700   0.2249   0.04884   0.03417  -0.0011   0.9371   1.0000
   4.800   0.2589   0.05061   0.03614  -0.0066   0.9104   1.0000
   4.900   0.2845   0.05207   0.03776  -0.0104   0.8871   1.0000
   5.000   0.3096   0.05343   0.03929  -0.0137   0.8631   1.0000
   5.100   0.3374   0.05484   0.04087  -0.0171   0.8382   1.0000
   5.200   0.3541   0.05594   0.04209  -0.0187   0.8176   1.0000
   5.300   0.3867   0.05729   0.04365  -0.0221   0.7897   1.0000
   5.400   0.3995   0.05828   0.04475  -0.0228   0.7706   1.0000
   5.500   0.4132   0.05932   0.04591  -0.0235   0.7518   1.0000
   5.600   0.4296   0.06033   0.04704  -0.0243   0.7308   1.0000
   5.700   0.4569   0.06135   0.04825  -0.0258   0.7053   1.0000
   5.800   0.4678   0.06229   0.04929  -0.0257   0.6874   1.0000
   5.900   0.4791   0.06328   0.05036  -0.0256   0.6700   1.0000
   6.000   0.4905   0.06428   0.05145  -0.0255   0.6531   1.0000
   6.100   0.5013   0.06525   0.05250  -0.0252   0.6360   1.0000
   6.200   0.5126   0.06626   0.05362  -0.0250   0.6198   1.0000
   6.500   0.5480   0.06920   0.05680  -0.0236   0.5720   1.0000
   6.600   0.5380   0.07080   0.05834  -0.0230   0.5692   1.0000
   6.700   0.5501   0.07181   0.05944  -0.0225   0.5542   1.0000
   6.800   0.5419   0.07340   0.06098  -0.0221   0.5510   1.0000
   6.900   0.5540   0.07450   0.06215  -0.0216   0.5372   1.0000
   7.000   0.5468   0.07616   0.06376  -0.0214   0.5348   1.0000
   7.100   0.5451   0.07766   0.06527  -0.0212   0.5296   1.0000
   7.300   0.5626   0.08019   0.06790  -0.0205   0.5080   1.0000
   7.400   0.5603   0.08185   0.06953  -0.0204   0.5046   1.0000
   7.500   0.5549   0.08360   0.07125  -0.0206   0.5036   1.0000
   7.600   0.5503   0.08531   0.07293  -0.0207   0.5025   1.0000
   7.700   0.5466   0.08700   0.07459  -0.0209   0.5011   1.0000
   7.800   0.5439   0.08866   0.07624  -0.0211   0.4996   1.0000
   7.900   0.5423   0.09031   0.07788  -0.0213   0.4977   1.0000
   8.000   0.5545   0.09187   0.07951  -0.0212   0.4881   1.0000
   8.100   0.5528   0.09367   0.08129  -0.0216   0.4883   1.0000
   8.200   0.5522   0.09551   0.08313  -0.0221   0.4887   1.0000
   8.300   0.5522   0.09736   0.08499  -0.0226   0.4892   1.0000
   8.400   0.5526   0.09923   0.08688  -0.0231   0.4899   1.0000
   8.600   0.5377   0.10304   0.09059  -0.0251   0.5076   1.0000
   9.300   0.3920   0.10893   0.09594  -0.0309   0.8491   1.0000
   9.400   0.4054   0.11197   0.09902  -0.0331   0.8400   1.0000
   9.500   0.4087   0.11303   0.10012  -0.0332   0.8282   1.0000
   9.600   0.4131   0.11455   0.10166  -0.0335   0.8191   1.0000
   9.700   0.4286   0.11789   0.10505  -0.0358   0.8071   1.0000
   9.800   0.4256   0.11797   0.10514  -0.0348   0.7979   1.0000
   9.900   0.4380   0.12098   0.10819  -0.0366   0.7897   1.0000
  10.000   0.4380   0.12153   0.10876  -0.0361   0.7796   1.0000
