  
       XFOIL         Version 6.99
  
 Calculated polar for: NACA 0012                                       
  
 1 1 Reynolds number fixed          Mach number fixed         
  
 xtrf =   1.000 (top)        1.000 (bottom)  
 Mach =   0.000     Re =     0.131 e 6     Ncrit =   9.000
  
   alpha    CL        CD       CDp       CM     Top_Xtr  Bot_Xtr
  ------ -------- --------- --------- -------- -------- --------
   0.000   0.0000   0.01451   0.00854   0.0000   0.9556   0.9556
   0.100   0.0275   0.01450   0.00854  -0.0031   0.9511   0.9577
   0.200   0.0560   0.01446   0.00851  -0.0064   0.9472   0.9600
   0.300   0.0843   0.01439   0.00844  -0.0097   0.9437   0.9625
   0.400   0.1120   0.01430   0.00836  -0.0128   0.9403   0.9654
   0.500   0.1319   0.01423   0.00830  -0.0144   0.9323   0.9704
   0.600   0.1587   0.01409   0.00818  -0.0173   0.9268   0.9725
   0.700   0.1825   0.01397   0.00806  -0.0196   0.9193   0.9754
   0.800   0.2046   0.01383   0.00794  -0.0216   0.9111   0.9791
   0.900   0.2242   0.01372   0.00783  -0.0230   0.9016   0.9834
   1.000   0.2464   0.01354   0.00765  -0.0250   0.8924   0.9862
   1.100   0.2658   0.01340   0.00753  -0.0264   0.8804   0.9901
   1.200   0.2844   0.01327   0.00739  -0.0277   0.8688   0.9942
   1.300   0.3037   0.01311   0.00720  -0.0290   0.8568   0.9975
   1.400   0.3183   0.01299   0.00707  -0.0296   0.8432   1.0000
   1.500   0.3257   0.01291   0.00696  -0.0288   0.8295   1.0000
   1.600   0.3332   0.01284   0.00685  -0.0280   0.8161   1.0000
   1.700   0.3409   0.01277   0.00674  -0.0272   0.8032   1.0000
   1.800   0.3487   0.01271   0.00664  -0.0264   0.7906   1.0000
   1.900   0.3566   0.01268   0.00656  -0.0257   0.7766   1.0000
   2.000   0.3647   0.01265   0.00649  -0.0251   0.7627   1.0000
   2.100   0.3729   0.01262   0.00642  -0.0244   0.7491   1.0000
   2.200   0.3812   0.01261   0.00636  -0.0238   0.7358   1.0000
   2.300   0.3896   0.01261   0.00629  -0.0231   0.7227   1.0000
   2.400   0.3981   0.01261   0.00624  -0.0226   0.7088   1.0000
   2.500   0.4067   0.01262   0.00621  -0.0220   0.6945   1.0000
   2.600   0.4153   0.01264   0.00618  -0.0215   0.6805   1.0000
   2.700   0.4240   0.01267   0.00616  -0.0210   0.6667   1.0000
   2.800   0.4328   0.01271   0.00613  -0.0204   0.6530   1.0000
   2.900   0.4415   0.01275   0.00610  -0.0199   0.6395   1.0000
   3.000   0.4502   0.01280   0.00610  -0.0194   0.6251   1.0000
   3.100   0.4589   0.01285   0.00610  -0.0189   0.6106   1.0000
   3.200   0.4675   0.01290   0.00611  -0.0184   0.5963   1.0000
   3.300   0.4761   0.01297   0.00612  -0.0178   0.5822   1.0000
   3.400   0.4847   0.01304   0.00613  -0.0173   0.5681   1.0000
   3.500   0.4932   0.01313   0.00615  -0.0168   0.5541   1.0000
   3.600   0.5017   0.01322   0.00617  -0.0162   0.5401   1.0000
   3.700   0.5101   0.01330   0.00621  -0.0157   0.5252   1.0000
   3.800   0.5186   0.01339   0.00625  -0.0152   0.5104   1.0000
   3.900   0.5269   0.01349   0.00630  -0.0146   0.4958   1.0000
   4.000   0.5353   0.01359   0.00635  -0.0141   0.4811   1.0000
   4.100   0.5435   0.01371   0.00640  -0.0135   0.4664   1.0000
   4.200   0.5517   0.01383   0.00646  -0.0130   0.4516   1.0000
   4.300   0.5599   0.01395   0.00653  -0.0124   0.4369   1.0000
   4.400   0.5679   0.01409   0.00660  -0.0118   0.4220   1.0000
   4.600   0.5839   0.01438   0.00676  -0.0107   0.3915   1.0000
   4.700   0.5918   0.01453   0.00685  -0.0101   0.3760   1.0000
   4.800   0.5996   0.01469   0.00695  -0.0095   0.3604   1.0000
   4.900   0.6074   0.01487   0.00706  -0.0089   0.3448   1.0000
   5.000   0.6151   0.01505   0.00718  -0.0083   0.3292   1.0000
   5.100   0.6227   0.01525   0.00731  -0.0077   0.3136   1.0000
   5.200   0.6303   0.01546   0.00746  -0.0071   0.2982   1.0000
   5.300   0.6378   0.01568   0.00760  -0.0065   0.2830   1.0000
   5.400   0.6452   0.01592   0.00777  -0.0058   0.2683   1.0000
   5.500   0.6526   0.01617   0.00794  -0.0052   0.2540   1.0000
   5.600   0.6598   0.01644   0.00812  -0.0045   0.2404   1.0000
   5.700   0.6668   0.01674   0.00831  -0.0039   0.2279   1.0000
   5.800   0.6742   0.01700   0.00853  -0.0032   0.2153   1.0000
   5.900   0.6817   0.01728   0.00876  -0.0026   0.2035   1.0000
   6.000   0.6888   0.01760   0.00900  -0.0020   0.1932   1.0000
   6.100   0.6960   0.01792   0.00924  -0.0013   0.1837   1.0000
   6.200   0.7036   0.01822   0.00952  -0.0007   0.1743   1.0000
   6.300   0.7103   0.01861   0.00979  -0.0000   0.1670   1.0000
   6.400   0.7184   0.01886   0.01008   0.0006   0.1588   1.0000
   6.500   0.7253   0.01926   0.01036   0.0012   0.1526   1.0000
   6.600   0.7333   0.01955   0.01068   0.0018   0.1458   1.0000
   6.700   0.7407   0.01987   0.01095   0.0024   0.1402   1.0000
   6.800   0.7481   0.02030   0.01133   0.0031   0.1352   1.0000
   6.900   0.7562   0.02059   0.01165   0.0036   0.1299   1.0000
   7.000   0.7637   0.02093   0.01194   0.0042   0.1255   1.0000
   7.100   0.7714   0.02142   0.01238   0.0047   0.1215   1.0000
   7.200   0.7796   0.02173   0.01275   0.0053   0.1174   1.0000
   7.300   0.7876   0.02206   0.01306   0.0058   0.1136   1.0000
   7.400   0.7955   0.02253   0.01344   0.0063   0.1104   1.0000
   7.500   0.8037   0.02301   0.01394   0.0068   0.1073   1.0000
   7.600   0.8119   0.02335   0.01435   0.0074   0.1041   1.0000
   7.700   0.8202   0.02371   0.01472   0.0078   0.1012   1.0000
   7.800   0.8285   0.02413   0.01508   0.0082   0.0987   1.0000
   7.900   0.8373   0.02493   0.01577   0.0085   0.0961   1.0000
   8.000   0.8454   0.02524   0.01622   0.0091   0.0939   1.0000
   8.100   0.8536   0.02563   0.01669   0.0096   0.0915   1.0000
   8.200   0.8619   0.02603   0.01712   0.0101   0.0892   1.0000
   8.300   0.8704   0.02646   0.01754   0.0105   0.0873   1.0000
   8.400   0.8792   0.02703   0.01804   0.0107   0.0855   1.0000
   8.500   0.8883   0.02800   0.01896   0.0109   0.0837   1.0000
   8.600   0.8958   0.02840   0.01951   0.0116   0.0822   1.0000
   8.700   0.9035   0.02888   0.02011   0.0121   0.0805   1.0000
   8.800   0.9114   0.02937   0.02068   0.0126   0.0788   1.0000
   8.900   0.9193   0.02984   0.02121   0.0131   0.0772   1.0000
   9.000   0.9274   0.03034   0.02171   0.0135   0.0758   1.0000
   9.100   0.9359   0.03095   0.02230   0.0138   0.0746   1.0000
   9.200   0.9448   0.03186   0.02317   0.0139   0.0734   1.0000
   9.300   0.9520   0.03296   0.02433   0.0143   0.0724   1.0000
   9.400   0.9578   0.03355   0.02512   0.0151   0.0715   1.0000
   9.500   0.9636   0.03423   0.02597   0.0159   0.0705   1.0000
   9.600   0.9695   0.03494   0.02682   0.0166   0.0694   1.0000
   9.700   0.9756   0.03563   0.02762   0.0172   0.0682   1.0000
   9.800   0.9820   0.03630   0.02836   0.0178   0.0672   1.0000
   9.900   0.9890   0.03694   0.02905   0.0182   0.0662   1.0000
  10.000   0.9956   0.03763   0.02979   0.0187   0.0654   1.0000
