  
       XFOIL         Version 6.99
  
 Calculated polar for: NACA 0012                                       
  
 1 1 Reynolds number fixed          Mach number fixed         
  
 xtrf =   1.000 (top)        1.000 (bottom)  
 Mach =   0.000     Re =     0.068 e 6     Ncrit =   9.000
  
   alpha    CL        CD       CDp       CM     Top_Xtr  Bot_Xtr
  ------ -------- --------- --------- -------- -------- --------
   0.000   0.0000   0.01883   0.01052  -0.0000   1.0000   1.0000
   0.100  -0.0088   0.01884   0.01053   0.0024   1.0000   1.0000
   0.200  -0.0172   0.01886   0.01055   0.0047   1.0000   1.0000
   0.300  -0.0247   0.01891   0.01059   0.0068   1.0000   1.0000
   0.400  -0.0311   0.01897   0.01064   0.0088   1.0000   1.0000
   0.500  -0.0361   0.01906   0.01072   0.0106   1.0000   1.0000
   0.600  -0.0399   0.01917   0.01081   0.0122   1.0000   1.0000
   0.700  -0.0109   0.01941   0.01106   0.0082   0.9937   1.0000
   0.800   0.0200   0.01961   0.01127   0.0039   0.9858   1.0000
   0.900   0.0502   0.01977   0.01146  -0.0001   0.9779   1.0000
   1.000   0.0827   0.01991   0.01163  -0.0046   0.9707   1.0000
   1.100   0.1108   0.01999   0.01174  -0.0081   0.9613   1.0000
   1.200   0.1442   0.02004   0.01184  -0.0125   0.9539   1.0000
   1.400   0.2063   0.01998   0.01188  -0.0202   0.9360   1.0000
   1.600   0.2676   0.01973   0.01175  -0.0272   0.9171   1.0000
   1.700   0.3003   0.01948   0.01156  -0.0309   0.9086   1.0000
   1.800   0.3198   0.01933   0.01146  -0.0321   0.8959   1.0000
   1.900   0.3400   0.01915   0.01132  -0.0334   0.8839   1.0000
   2.000   0.3614   0.01890   0.01112  -0.0347   0.8730   1.0000
   2.100   0.3762   0.01874   0.01098  -0.0348   0.8600   1.0000
   2.200   0.3879   0.01863   0.01088  -0.0345   0.8463   1.0000
   2.300   0.3993   0.01851   0.01077  -0.0340   0.8331   1.0000
   2.400   0.4105   0.01838   0.01064  -0.0333   0.8203   1.0000
   2.500   0.4214   0.01824   0.01049  -0.0326   0.8080   1.0000
   2.600   0.4294   0.01820   0.01044  -0.0315   0.7936   1.0000
   2.700   0.4375   0.01816   0.01040  -0.0304   0.7795   1.0000
   2.800   0.4457   0.01812   0.01034  -0.0294   0.7657   1.0000
   2.900   0.4540   0.01808   0.01028  -0.0283   0.7521   1.0000
   3.000   0.4625   0.01803   0.01019  -0.0272   0.7388   1.0000
   3.100   0.4705   0.01802   0.01014  -0.0261   0.7248   1.0000
   3.200   0.4780   0.01804   0.01014  -0.0250   0.7099   1.0000
   3.300   0.4857   0.01808   0.01014  -0.0239   0.6950   1.0000
   3.400   0.4935   0.01811   0.01014  -0.0229   0.6802   1.0000
   3.500   0.5013   0.01816   0.01015  -0.0218   0.6654   1.0000
   3.600   0.5092   0.01821   0.01015  -0.0208   0.6505   1.0000
   3.700   0.5171   0.01827   0.01015  -0.0198   0.6356   1.0000
   3.800   0.5250   0.01834   0.01016  -0.0188   0.6205   1.0000
   3.900   0.5330   0.01842   0.01017  -0.0179   0.6054   1.0000
   4.000   0.5408   0.01852   0.01020  -0.0169   0.5899   1.0000
   4.100   0.5485   0.01863   0.01025  -0.0160   0.5738   1.0000
   4.200   0.5561   0.01875   0.01031  -0.0150   0.5576   1.0000
   4.300   0.5638   0.01888   0.01038  -0.0141   0.5413   1.0000
   4.400   0.5713   0.01903   0.01047  -0.0132   0.5248   1.0000
   4.500   0.5789   0.01918   0.01055  -0.0123   0.5082   1.0000
   4.600   0.5864   0.01935   0.01064  -0.0114   0.4914   1.0000
   4.700   0.5939   0.01952   0.01073  -0.0106   0.4746   1.0000
   4.800   0.6013   0.01972   0.01084  -0.0097   0.4576   1.0000
   4.900   0.6087   0.01993   0.01096  -0.0088   0.4405   1.0000
   5.000   0.6160   0.02015   0.01108  -0.0080   0.4235   1.0000
   5.100   0.6231   0.02039   0.01125  -0.0071   0.4059   1.0000
   5.200   0.6302   0.02066   0.01144  -0.0063   0.3886   1.0000
   5.300   0.6373   0.02093   0.01164  -0.0054   0.3715   1.0000
   5.400   0.6444   0.02123   0.01185  -0.0046   0.3547   1.0000
   5.500   0.6515   0.02155   0.01207  -0.0038   0.3385   1.0000
   5.600   0.6587   0.02189   0.01230  -0.0030   0.3229   1.0000
   5.700   0.6659   0.02224   0.01254  -0.0023   0.3081   1.0000
   5.800   0.6731   0.02261   0.01283  -0.0015   0.2937   1.0000
   5.900   0.6803   0.02300   0.01317  -0.0008   0.2797   1.0000
   6.000   0.6876   0.02340   0.01354  -0.0000   0.2666   1.0000
   6.100   0.6951   0.02384   0.01389   0.0006   0.2549   1.0000
   6.200   0.7032   0.02429   0.01418   0.0012   0.2448   1.0000
   6.300   0.7104   0.02471   0.01467   0.0019   0.2337   1.0000
   6.400   0.7183   0.02520   0.01509   0.0025   0.2243   1.0000
   6.500   0.7263   0.02564   0.01546   0.0031   0.2156   1.0000
   6.600   0.7342   0.02619   0.01603   0.0037   0.2074   1.0000
   6.700   0.7424   0.02665   0.01640   0.0042   0.1999   1.0000
   6.800   0.7504   0.02722   0.01700   0.0048   0.1929   1.0000
   6.900   0.7585   0.02771   0.01749   0.0053   0.1863   1.0000
   7.000   0.7676   0.02836   0.01801   0.0056   0.1808   1.0000
   7.100   0.7749   0.02890   0.01873   0.0064   0.1747   1.0000
   7.200   0.7835   0.02941   0.01916   0.0068   0.1695   1.0000
   7.300   0.7922   0.03015   0.01987   0.0072   0.1650   1.0000
   7.400   0.7996   0.03079   0.02067   0.0078   0.1603   1.0000
   7.500   0.8079   0.03135   0.02123   0.0083   0.1560   1.0000
   7.600   0.8177   0.03212   0.02181   0.0084   0.1521   1.0000
   7.700   0.8238   0.03285   0.02279   0.0093   0.1486   1.0000
   7.800   0.8311   0.03358   0.02367   0.0099   0.1452   1.0000
   7.900   0.8392   0.03426   0.02438   0.0104   0.1419   1.0000
   8.000   0.8481   0.03494   0.02499   0.0107   0.1389   1.0000
   8.100   0.8556   0.03595   0.02603   0.0111   0.1363   1.0000
   8.200   0.8604   0.03683   0.02717   0.0120   0.1338   1.0000
   8.300   0.8661   0.03772   0.02825   0.0128   0.1313   1.0000
   8.400   0.8727   0.03860   0.02923   0.0134   0.1291   1.0000
   8.500   0.8804   0.03941   0.03006   0.0138   0.1270   1.0000
   8.600   0.8888   0.04023   0.03083   0.0141   0.1248   1.0000
   8.700   0.8967   0.04152   0.03204   0.0143   0.1229   1.0000
   8.800   0.8985   0.04260   0.03343   0.0154   0.1216   1.0000
   8.900   0.9003   0.04381   0.03491   0.0165   0.1202   1.0000
   9.000   0.9021   0.04507   0.03640   0.0174   0.1189   1.0000
   9.100   0.9039   0.04639   0.03790   0.0183   0.1177   1.0000
   9.200   0.9055   0.04779   0.03948   0.0191   0.1169   1.0000
   9.300   0.9064   0.04924   0.04111   0.0200   0.1162   1.0000
   9.500   0.9070   0.05219   0.04438   0.0216   0.1149   1.0000
   9.600   0.9069   0.05366   0.04597   0.0223   0.1142   1.0000
   9.700   0.9072   0.05506   0.04749   0.0230   0.1135   1.0000
   9.800   0.9102   0.05623   0.04870   0.0235   0.1124   1.0000
   9.900   0.9347   0.05680   0.04882   0.0225   0.1093   1.0000
  10.000   0.9306   0.05845   0.05067   0.0234   0.1091   1.0000
