  
       XFOIL         Version 6.99
  
 Calculated polar for: NACA 0012                                       
  
 1 1 Reynolds number fixed          Mach number fixed         
  
 xtrf =   1.000 (top)        1.000 (bottom)  
 Mach =   0.000     Re =     0.095 e 6     Ncrit =   9.000
  
   alpha    CL        CD       CDp       CM     Top_Xtr  Bot_Xtr
  ------ -------- --------- --------- -------- -------- --------
   0.000   0.0000   0.01714   0.01020  -0.0000   1.0000   1.0000
   0.100   0.0018   0.01714   0.01021   0.0004   0.9979   1.0000
   0.200   0.0300   0.01713   0.01020  -0.0034   0.9922   1.0000
   0.300   0.0580   0.01710   0.01017  -0.0071   0.9859   1.0000
   0.400   0.0858   0.01705   0.01013  -0.0107   0.9798   1.0000
   0.500   0.1136   0.01697   0.01007  -0.0142   0.9733   1.0000
   0.600   0.1416   0.01687   0.00999  -0.0177   0.9671   1.0000
   0.700   0.1693   0.01675   0.00989  -0.0210   0.9602   1.0000
   0.800   0.2000   0.01658   0.00975  -0.0249   0.9552   1.0000
   0.900   0.2226   0.01642   0.00961  -0.0272   0.9455   1.0000
   1.000   0.2474   0.01623   0.00945  -0.0297   0.9377   1.0000
   1.100   0.2682   0.01604   0.00928  -0.0315   0.9276   1.0000
   1.200   0.2861   0.01586   0.00914  -0.0327   0.9164   1.0000
   1.300   0.3046   0.01566   0.00895  -0.0339   0.9065   1.0000
   1.400   0.3177   0.01551   0.00880  -0.0341   0.8938   1.0000
   1.500   0.3290   0.01538   0.00867  -0.0338   0.8808   1.0000
   1.600   0.3397   0.01525   0.00854  -0.0335   0.8681   1.0000
   1.700   0.3499   0.01511   0.00839  -0.0329   0.8561   1.0000
   1.800   0.3586   0.01501   0.00828  -0.0321   0.8429   1.0000
   1.900   0.3666   0.01494   0.00819  -0.0313   0.8291   1.0000
   2.000   0.3747   0.01487   0.00810  -0.0304   0.8157   1.0000
   2.100   0.3828   0.01480   0.00800  -0.0295   0.8028   1.0000
   2.200   0.3911   0.01473   0.00789  -0.0286   0.7903   1.0000
   2.300   0.3989   0.01470   0.00783  -0.0277   0.7762   1.0000
   2.400   0.4068   0.01468   0.00778  -0.0268   0.7621   1.0000
   2.500   0.4148   0.01467   0.00773  -0.0259   0.7483   1.0000
   2.600   0.4229   0.01466   0.00768  -0.0251   0.7347   1.0000
   2.700   0.4310   0.01467   0.00764  -0.0242   0.7214   1.0000
   2.800   0.4391   0.01468   0.00760  -0.0234   0.7078   1.0000
   2.900   0.4472   0.01471   0.00759  -0.0226   0.6931   1.0000
   3.000   0.4553   0.01475   0.00758  -0.0219   0.6786   1.0000
   3.100   0.4635   0.01479   0.00758  -0.0211   0.6642   1.0000
   3.200   0.4717   0.01484   0.00758  -0.0204   0.6500   1.0000
   3.300   0.4799   0.01490   0.00757  -0.0196   0.6358   1.0000
   3.400   0.4882   0.01497   0.00757  -0.0189   0.6217   1.0000
   3.500   0.4964   0.01504   0.00760  -0.0182   0.6072   1.0000
   3.600   0.5045   0.01512   0.00763  -0.0175   0.5920   1.0000
   3.700   0.5126   0.01521   0.00767  -0.0168   0.5769   1.0000
   3.800   0.5207   0.01531   0.00771  -0.0161   0.5617   1.0000
   3.900   0.5288   0.01541   0.00776  -0.0154   0.5465   1.0000
   4.000   0.5368   0.01552   0.00781  -0.0147   0.5314   1.0000
   4.100   0.5448   0.01564   0.00786  -0.0140   0.5162   1.0000
   4.200   0.5528   0.01577   0.00792  -0.0133   0.5008   1.0000
   4.300   0.5607   0.01590   0.00800  -0.0126   0.4854   1.0000
   4.400   0.5685   0.01604   0.00807  -0.0119   0.4698   1.0000
   4.500   0.5763   0.01619   0.00815  -0.0112   0.4541   1.0000
   4.600   0.5840   0.01635   0.00823  -0.0105   0.4382   1.0000
   4.700   0.5916   0.01653   0.00833  -0.0098   0.4221   1.0000
   4.800   0.5991   0.01671   0.00843  -0.0091   0.4059   1.0000
   4.900   0.6066   0.01690   0.00855  -0.0084   0.3896   1.0000
   5.000   0.6140   0.01711   0.00868  -0.0077   0.3732   1.0000
   5.100   0.6213   0.01733   0.00882  -0.0069   0.3567   1.0000
   5.200   0.6286   0.01757   0.00898  -0.0062   0.3404   1.0000
   5.300   0.6358   0.01782   0.00914  -0.0055   0.3243   1.0000
   5.400   0.6429   0.01809   0.00932  -0.0048   0.3086   1.0000
   5.500   0.6501   0.01837   0.00952  -0.0041   0.2931   1.0000
   5.600   0.6572   0.01866   0.00974  -0.0034   0.2780   1.0000
   5.700   0.6644   0.01897   0.00998  -0.0027   0.2634   1.0000
   5.800   0.6716   0.01929   0.01024  -0.0020   0.2497   1.0000
   5.900   0.6788   0.01964   0.01051  -0.0013   0.2371   1.0000
   6.000   0.6860   0.02001   0.01077  -0.0007   0.2260   1.0000
   6.100   0.6933   0.02035   0.01105  -0.0000   0.2151   1.0000
   6.200   0.7008   0.02072   0.01140   0.0006   0.2047   1.0000
   6.300   0.7082   0.02115   0.01169   0.0012   0.1963   1.0000
   6.400   0.7158   0.02148   0.01204   0.0019   0.1871   1.0000
   6.500   0.7235   0.02193   0.01240   0.0025   0.1798   1.0000
   6.600   0.7313   0.02228   0.01277   0.0031   0.1721   1.0000
   6.700   0.7392   0.02279   0.01313   0.0036   0.1662   1.0000
   6.800   0.7472   0.02314   0.01357   0.0042   0.1594   1.0000
   6.900   0.7552   0.02356   0.01389   0.0047   0.1540   1.0000
   7.000   0.7634   0.02407   0.01443   0.0052   0.1489   1.0000
   7.100   0.7716   0.02447   0.01487   0.0057   0.1437   1.0000
   7.200   0.7800   0.02493   0.01522   0.0061   0.1393   1.0000
   7.300   0.7885   0.02552   0.01581   0.0066   0.1352   1.0000
   7.400   0.7965   0.02595   0.01634   0.0072   0.1309   1.0000
   7.500   0.8050   0.02640   0.01677   0.0076   0.1273   1.0000
   7.600   0.8142   0.02701   0.01725   0.0078   0.1240   1.0000
   7.700   0.8224   0.02763   0.01796   0.0084   0.1208   1.0000
   7.800   0.8303   0.02812   0.01856   0.0090   0.1175   1.0000
   7.900   0.8385   0.02860   0.01910   0.0094   0.1145   1.0000
   8.000   0.8473   0.02913   0.01959   0.0098   0.1119   1.0000
   8.100   0.8571   0.03008   0.02039   0.0098   0.1095   1.0000
   8.200   0.8642   0.03068   0.02118   0.0105   0.1074   1.0000
   8.300   0.8715   0.03128   0.02194   0.0112   0.1051   1.0000
   8.400   0.8792   0.03186   0.02260   0.0117   0.1027   1.0000
   8.500   0.8870   0.03242   0.02320   0.0122   0.1006   1.0000
   8.600   0.8954   0.03303   0.02380   0.0125   0.0987   1.0000
   8.700   0.9044   0.03394   0.02464   0.0127   0.0971   1.0000
   8.800   0.9115   0.03508   0.02585   0.0131   0.0957   1.0000
   8.900   0.9166   0.03583   0.02686   0.0141   0.0944   1.0000
   9.000   0.9218   0.03667   0.02789   0.0149   0.0930   1.0000
   9.100   0.9271   0.03751   0.02890   0.0157   0.0915   1.0000
   9.200   0.9330   0.03831   0.02981   0.0163   0.0900   1.0000
   9.300   0.9395   0.03905   0.03062   0.0168   0.0886   1.0000
   9.400   0.9470   0.03979   0.03137   0.0172   0.0873   1.0000
   9.500   0.9535   0.04067   0.03230   0.0177   0.0863   1.0000
   9.600   0.9601   0.04168   0.03334   0.0181   0.0854   1.0000
   9.700   0.9662   0.04301   0.03469   0.0184   0.0845   1.0000
   9.800   0.9695   0.04464   0.03640   0.0190   0.0838   1.0000
   9.900   0.9700   0.04575   0.03777   0.0201   0.0834   1.0000
  10.000   0.9699   0.04699   0.03923   0.0212   0.0829   1.0000
