  
       XFOIL         Version 6.99
  
 Calculated polar for: NACA 0012                                       
  
 1 1 Reynolds number fixed          Mach number fixed         
  
 xtrf =   1.000 (top)        1.000 (bottom)  
 Mach =   0.000     Re =     0.127 e 6     Ncrit =   9.000
  
   alpha    CL        CD       CDp       CM     Top_Xtr  Bot_Xtr
  ------ -------- --------- --------- -------- -------- --------
   0.000  -0.0000   0.01484   0.00879   0.0000   0.9588   0.9588
   0.100   0.0316   0.01482   0.00878  -0.0040   0.9568   0.9609
   0.200   0.0595   0.01478   0.00874  -0.0072   0.9529   0.9639
   0.300   0.0844   0.01472   0.00869  -0.0098   0.9476   0.9681
   0.400   0.1117   0.01463   0.00861  -0.0129   0.9435   0.9710
   0.500   0.1403   0.01450   0.00849  -0.0162   0.9392   0.9731
   0.600   0.1645   0.01438   0.00839  -0.0186   0.9314   0.9762
   0.700   0.1898   0.01423   0.00825  -0.0212   0.9255   0.9795
   0.800   0.2106   0.01411   0.00814  -0.0230   0.9161   0.9836
   0.900   0.2350   0.01391   0.00796  -0.0254   0.9084   0.9861
   1.000   0.2555   0.01376   0.00782  -0.0271   0.8969   0.9899
   1.100   0.2752   0.01362   0.00768  -0.0285   0.8862   0.9940
   1.200   0.2956   0.01342   0.00748  -0.0301   0.8749   0.9971
   1.300   0.3116   0.01329   0.00734  -0.0309   0.8612   1.0000
   1.400   0.3192   0.01319   0.00721  -0.0302   0.8477   1.0000
   1.500   0.3268   0.01310   0.00709  -0.0293   0.8345   1.0000
   1.600   0.3344   0.01302   0.00697  -0.0285   0.8219   1.0000
   1.700   0.3420   0.01295   0.00686  -0.0277   0.8088   1.0000
   1.800   0.3497   0.01290   0.00678  -0.0269   0.7949   1.0000
   1.900   0.3576   0.01285   0.00670  -0.0262   0.7813   1.0000
   2.000   0.3656   0.01282   0.00661  -0.0255   0.7680   1.0000
   2.100   0.3737   0.01279   0.00653  -0.0248   0.7550   1.0000
   2.200   0.3820   0.01278   0.00646  -0.0241   0.7416   1.0000
   2.300   0.3903   0.01277   0.00642  -0.0235   0.7274   1.0000
   2.400   0.3988   0.01278   0.00637  -0.0229   0.7134   1.0000
   2.500   0.4074   0.01279   0.00633  -0.0223   0.6996   1.0000
   2.600   0.4160   0.01281   0.00629  -0.0217   0.6861   1.0000
   2.700   0.4246   0.01283   0.00626  -0.0212   0.6727   1.0000
   2.800   0.4333   0.01287   0.00624  -0.0206   0.6584   1.0000
   2.900   0.4420   0.01290   0.00623  -0.0201   0.6440   1.0000
   3.000   0.4507   0.01295   0.00622  -0.0196   0.6297   1.0000
   3.100   0.4593   0.01300   0.00622  -0.0190   0.6156   1.0000
   3.200   0.4678   0.01306   0.00622  -0.0185   0.6016   1.0000
   3.300   0.4764   0.01314   0.00622  -0.0179   0.5878   1.0000
   3.400   0.4849   0.01321   0.00623  -0.0174   0.5737   1.0000
   3.500   0.4934   0.01328   0.00627  -0.0169   0.5589   1.0000
   3.600   0.5019   0.01336   0.00630  -0.0163   0.5443   1.0000
   3.700   0.5103   0.01345   0.00634  -0.0158   0.5298   1.0000
   3.800   0.5187   0.01355   0.00638  -0.0152   0.5152   1.0000
   3.900   0.5271   0.01365   0.00642  -0.0147   0.5007   1.0000
   4.000   0.5353   0.01376   0.00646  -0.0141   0.4862   1.0000
   4.100   0.5435   0.01388   0.00651  -0.0135   0.4717   1.0000
   4.200   0.5517   0.01400   0.00657  -0.0130   0.4569   1.0000
   4.300   0.5598   0.01412   0.00664  -0.0124   0.4416   1.0000
   4.400   0.5679   0.01425   0.00672  -0.0118   0.4263   1.0000
   4.500   0.5759   0.01439   0.00680  -0.0112   0.4108   1.0000
   4.600   0.5839   0.01453   0.00689  -0.0107   0.3954   1.0000
   4.700   0.5918   0.01469   0.00698  -0.0101   0.3799   1.0000
   4.800   0.5996   0.01486   0.00708  -0.0095   0.3643   1.0000
   4.900   0.6073   0.01503   0.00719  -0.0088   0.3487   1.0000
   5.000   0.6150   0.01522   0.00731  -0.0082   0.3331   1.0000
   5.100   0.6226   0.01542   0.00744  -0.0076   0.3176   1.0000
   5.200   0.6301   0.01563   0.00758  -0.0070   0.3021   1.0000
   5.300   0.6375   0.01586   0.00773  -0.0063   0.2869   1.0000
   5.400   0.6448   0.01611   0.00789  -0.0057   0.2722   1.0000
   5.500   0.6521   0.01637   0.00806  -0.0050   0.2580   1.0000
   5.700   0.6666   0.01691   0.00845  -0.0037   0.2309   1.0000
   5.800   0.6740   0.01719   0.00868  -0.0031   0.2181   1.0000
   5.900   0.6812   0.01749   0.00891  -0.0025   0.2066   1.0000
   6.000   0.6881   0.01784   0.00914  -0.0018   0.1967   1.0000
   6.100   0.6958   0.01810   0.00940  -0.0012   0.1862   1.0000
   6.200   0.7030   0.01845   0.00968  -0.0005   0.1772   1.0000
   6.300   0.7103   0.01877   0.00994   0.0001   0.1692   1.0000
   6.400   0.7178   0.01911   0.01026   0.0008   0.1615   1.0000
   6.500   0.7252   0.01943   0.01051   0.0014   0.1547   1.0000
   6.600   0.7327   0.01981   0.01086   0.0020   0.1484   1.0000
   6.700   0.7405   0.02011   0.01115   0.0026   0.1423   1.0000
   6.800   0.7476   0.02060   0.01151   0.0032   0.1375   1.0000
   6.900   0.7558   0.02087   0.01186   0.0038   0.1321   1.0000
   7.000   0.7636   0.02119   0.01217   0.0043   0.1274   1.0000
   7.100   0.7711   0.02171   0.01256   0.0048   0.1234   1.0000
   7.200   0.7793   0.02205   0.01298   0.0054   0.1194   1.0000
   7.300   0.7875   0.02238   0.01333   0.0060   0.1155   1.0000
   7.400   0.7955   0.02275   0.01365   0.0064   0.1121   1.0000
   7.500   0.8037   0.02341   0.01419   0.0068   0.1089   1.0000
   7.600   0.8119   0.02371   0.01462   0.0074   0.1059   1.0000
   7.700   0.8202   0.02408   0.01504   0.0079   0.1029   1.0000
   7.800   0.8286   0.02447   0.01541   0.0084   0.1002   1.0000
   7.900   0.8371   0.02497   0.01583   0.0087   0.0978   1.0000
   8.000   0.8458   0.02569   0.01653   0.0090   0.0954   1.0000
   8.100   0.8538   0.02606   0.01703   0.0096   0.0931   1.0000
   8.200   0.8620   0.02648   0.01752   0.0101   0.0908   1.0000
   8.300   0.8704   0.02691   0.01798   0.0106   0.0887   1.0000
   8.400   0.8790   0.02739   0.01843   0.0109   0.0869   1.0000
   8.500   0.8879   0.02802   0.01899   0.0111   0.0852   1.0000
   8.600   0.8966   0.02896   0.01993   0.0114   0.0835   1.0000
   8.700   0.9039   0.02940   0.02053   0.0121   0.0820   1.0000
   8.800   0.9115   0.02992   0.02117   0.0127   0.0803   1.0000
   8.900   0.9192   0.03044   0.02177   0.0132   0.0787   1.0000
   9.000   0.9270   0.03096   0.02235   0.0136   0.0772   1.0000
   9.100   0.9349   0.03152   0.02294   0.0140   0.0759   1.0000
   9.200   0.9432   0.03215   0.02356   0.0144   0.0748   1.0000
   9.300   0.9519   0.03300   0.02437   0.0145   0.0737   1.0000
   9.400   0.9592   0.03430   0.02569   0.0148   0.0726   1.0000
   9.500   0.9644   0.03490   0.02650   0.0157   0.0718   1.0000
   9.600   0.9694   0.03561   0.02741   0.0166   0.0708   1.0000
   9.700   0.9745   0.03638   0.02834   0.0173   0.0697   1.0000
   9.800   0.9797   0.03717   0.02925   0.0180   0.0687   1.0000
   9.900   0.9852   0.03794   0.03014   0.0187   0.0677   1.0000
  10.000   0.9909   0.03872   0.03101   0.0193   0.0669   1.0000
