  
       XFOIL         Version 6.99
  
 Calculated polar for: NACA 0012                                       
  
 1 1 Reynolds number fixed          Mach number fixed         
  
 xtrf =   1.000 (top)        1.000 (bottom)  
 Mach =   0.000     Re =     0.119 e 6     Ncrit =   9.000
  
   alpha    CL        CD       CDp       CM     Top_Xtr  Bot_Xtr
  ------ -------- --------- --------- -------- -------- --------
   0.000  -0.0000   0.01551   0.00928   0.0000   0.9696   0.9696
   0.100   0.0292   0.01548   0.00926  -0.0036   0.9651   0.9720
   0.200   0.0601   0.01543   0.00921  -0.0074   0.9615   0.9744
   0.300   0.0915   0.01535   0.00914  -0.0114   0.9585   0.9769
   0.400   0.1218   0.01524   0.00905  -0.0151   0.9555   0.9798
   0.500   0.1469   0.01513   0.00895  -0.0178   0.9485   0.9835
   0.600   0.1762   0.01495   0.00880  -0.0213   0.9432   0.9856
   0.700   0.2032   0.01478   0.00864  -0.0244   0.9364   0.9883
   0.800   0.2283   0.01460   0.00848  -0.0270   0.9283   0.9916
   0.900   0.2525   0.01440   0.00831  -0.0295   0.9195   0.9948
   1.000   0.2764   0.01418   0.00811  -0.0318   0.9097   0.9977
   1.100   0.2938   0.01401   0.00794  -0.0329   0.8973   1.0000
   1.200   0.3038   0.01387   0.00779  -0.0326   0.8845   1.0000
   1.300   0.3131   0.01373   0.00763  -0.0320   0.8721   1.0000
   1.400   0.3213   0.01362   0.00749  -0.0313   0.8591   1.0000
   1.500   0.3289   0.01352   0.00738  -0.0305   0.8453   1.0000
   1.600   0.3366   0.01344   0.00727  -0.0297   0.8319   1.0000
   1.700   0.3443   0.01336   0.00716  -0.0288   0.8189   1.0000
   1.800   0.3520   0.01329   0.00705  -0.0280   0.8064   1.0000
   1.900   0.3597   0.01324   0.00696  -0.0272   0.7928   1.0000
   2.000   0.3676   0.01321   0.00689  -0.0264   0.7788   1.0000
   2.100   0.3756   0.01318   0.00682  -0.0257   0.7652   1.0000
   2.200   0.3838   0.01316   0.00675  -0.0250   0.7519   1.0000
   2.300   0.3921   0.01314   0.00668  -0.0243   0.7388   1.0000
   2.400   0.4004   0.01314   0.00662  -0.0236   0.7251   1.0000
   2.500   0.4088   0.01315   0.00659  -0.0230   0.7108   1.0000
   2.600   0.4173   0.01316   0.00656  -0.0224   0.6967   1.0000
   2.700   0.4259   0.01319   0.00654  -0.0218   0.6828   1.0000
   2.800   0.4345   0.01322   0.00651  -0.0212   0.6691   1.0000
   2.900   0.4431   0.01326   0.00648  -0.0205   0.6555   1.0000
   3.000   0.4516   0.01330   0.00647  -0.0199   0.6413   1.0000
   3.100   0.4601   0.01335   0.00648  -0.0194   0.6267   1.0000
   3.200   0.4685   0.01341   0.00648  -0.0188   0.6122   1.0000
   3.300   0.4770   0.01348   0.00649  -0.0182   0.5979   1.0000
   3.400   0.4855   0.01355   0.00651  -0.0177   0.5837   1.0000
   3.500   0.4939   0.01363   0.00653  -0.0171   0.5696   1.0000
   3.600   0.5023   0.01372   0.00655  -0.0165   0.5555   1.0000
   3.700   0.5107   0.01381   0.00658  -0.0159   0.5408   1.0000
   3.800   0.5190   0.01390   0.00663  -0.0153   0.5258   1.0000
   3.900   0.5273   0.01400   0.00667  -0.0148   0.5108   1.0000
   4.000   0.5356   0.01411   0.00673  -0.0142   0.4959   1.0000
   4.100   0.5438   0.01422   0.00678  -0.0136   0.4810   1.0000
   4.200   0.5519   0.01434   0.00684  -0.0130   0.4660   1.0000
   4.300   0.5600   0.01447   0.00692  -0.0124   0.4509   1.0000
   4.400   0.5680   0.01461   0.00699  -0.0118   0.4359   1.0000
   4.500   0.5759   0.01475   0.00706  -0.0112   0.4206   1.0000
   4.600   0.5837   0.01491   0.00715  -0.0106   0.4053   1.0000
   4.700   0.5915   0.01507   0.00724  -0.0099   0.3899   1.0000
   4.800   0.5992   0.01525   0.00734  -0.0093   0.3743   1.0000
   4.900   0.6069   0.01542   0.00745  -0.0087   0.3583   1.0000
   5.000   0.6145   0.01561   0.00757  -0.0080   0.3424   1.0000
   5.100   0.6220   0.01582   0.00770  -0.0074   0.3266   1.0000
   5.200   0.6295   0.01603   0.00786  -0.0068   0.3108   1.0000
   5.300   0.6369   0.01626   0.00801  -0.0061   0.2952   1.0000
   5.400   0.6442   0.01650   0.00818  -0.0055   0.2799   1.0000
   5.500   0.6515   0.01676   0.00836  -0.0048   0.2651   1.0000
   5.600   0.6588   0.01703   0.00856  -0.0041   0.2508   1.0000
   5.700   0.6660   0.01732   0.00877  -0.0035   0.2374   1.0000
   5.800   0.6731   0.01763   0.00898  -0.0028   0.2252   1.0000
   5.900   0.6801   0.01796   0.00921  -0.0021   0.2139   1.0000
   6.000   0.6877   0.01824   0.00947  -0.0015   0.2023   1.0000
   6.100   0.6949   0.01859   0.00975  -0.0009   0.1923   1.0000
   6.200   0.7020   0.01893   0.01000  -0.0002   0.1835   1.0000
   6.300   0.7097   0.01924   0.01031   0.0004   0.1745   1.0000
   6.400   0.7167   0.01965   0.01059   0.0011   0.1675   1.0000
   6.500   0.7246   0.01994   0.01093   0.0017   0.1597   1.0000
   6.600   0.7319   0.02031   0.01120   0.0023   0.1536   1.0000
   6.700   0.7397   0.02069   0.01159   0.0029   0.1473   1.0000
   6.800   0.7475   0.02101   0.01189   0.0035   0.1417   1.0000
   6.900   0.7550   0.02154   0.01227   0.0040   0.1370   1.0000
   7.000   0.7632   0.02182   0.01267   0.0046   0.1319   1.0000
   7.100   0.7711   0.02216   0.01299   0.0051   0.1274   1.0000
   7.200   0.7790   0.02269   0.01339   0.0056   0.1236   1.0000
   7.300   0.7873   0.02309   0.01387   0.0061   0.1198   1.0000
   7.400   0.7955   0.02344   0.01427   0.0067   0.1160   1.0000
   7.500   0.8037   0.02382   0.01460   0.0071   0.1126   1.0000
   7.600   0.8123   0.02451   0.01515   0.0074   0.1095   1.0000
   7.700   0.8205   0.02489   0.01565   0.0080   0.1067   1.0000
   7.800   0.8288   0.02530   0.01614   0.0085   0.1038   1.0000
   7.900   0.8372   0.02571   0.01657   0.0090   0.1012   1.0000
   8.000   0.8457   0.02616   0.01697   0.0093   0.0987   1.0000
   8.100   0.8551   0.02707   0.01775   0.0094   0.0963   1.0000
   8.200   0.8628   0.02744   0.01827   0.0101   0.0943   1.0000
   8.300   0.8708   0.02791   0.01885   0.0106   0.0921   1.0000
   8.400   0.8790   0.02842   0.01943   0.0111   0.0901   1.0000
   8.500   0.8873   0.02892   0.01996   0.0116   0.0883   1.0000
   8.600   0.8959   0.02943   0.02045   0.0119   0.0866   1.0000
   8.700   0.9050   0.03019   0.02112   0.0120   0.0849   1.0000
   8.800   0.9128   0.03113   0.02213   0.0124   0.0834   1.0000
   8.900   0.9194   0.03165   0.02283   0.0132   0.0820   1.0000
   9.000   0.9263   0.03226   0.02358   0.0138   0.0804   1.0000
   9.100   0.9335   0.03291   0.02433   0.0144   0.0790   1.0000
   9.200   0.9409   0.03360   0.02510   0.0149   0.0778   1.0000
   9.300   0.9483   0.03427   0.02582   0.0154   0.0767   1.0000
   9.400   0.9557   0.03492   0.02651   0.0158   0.0756   1.0000
   9.500   0.9635   0.03561   0.02720   0.0161   0.0745   1.0000
   9.600   0.9715   0.03666   0.02821   0.0163   0.0734   1.0000
   9.700   0.9767   0.03796   0.02961   0.0168   0.0725   1.0000
   9.800   0.9799   0.03871   0.03058   0.0179   0.0717   1.0000
   9.900   0.9831   0.03960   0.03168   0.0188   0.0709   1.0000
  10.000   0.9860   0.04058   0.03287   0.0197   0.0701   1.0000
