  
       XFOIL         Version 6.99
  
 Calculated polar for: NACA 0012                                       
  
 1 1 Reynolds number fixed          Mach number fixed         
  
 xtrf =   1.000 (top)        1.000 (bottom)  
 Mach =   0.000     Re =     0.072 e 6     Ncrit =   9.000
  
   alpha    CL        CD       CDp       CM     Top_Xtr  Bot_Xtr
  ------ -------- --------- --------- -------- -------- --------
   0.000   0.0000   0.01852   0.01046  -0.0000   1.0000   1.0000
   0.100  -0.0096   0.01852   0.01046   0.0024   1.0000   1.0000
   0.200  -0.0186   0.01855   0.01048   0.0048   1.0000   1.0000
   0.300  -0.0267   0.01860   0.01052   0.0070   1.0000   1.0000
   0.400  -0.0335   0.01866   0.01058   0.0091   1.0000   1.0000
   0.500  -0.0371   0.01876   0.01066   0.0106   0.9997   1.0000
   0.600  -0.0061   0.01896   0.01087   0.0063   0.9931   1.0000
   0.700   0.0244   0.01911   0.01104   0.0021   0.9856   1.0000
   0.800   0.0542   0.01924   0.01118  -0.0019   0.9781   1.0000
   0.900   0.0860   0.01934   0.01131  -0.0061   0.9711   1.0000
   1.000   0.1139   0.01939   0.01139  -0.0096   0.9622   1.0000
   1.100   0.1488   0.01940   0.01144  -0.0142   0.9560   1.0000
   1.200   0.1752   0.01938   0.01145  -0.0173   0.9460   1.0000
   1.300   0.2142   0.01926   0.01140  -0.0225   0.9403   1.0000
   1.400   0.2394   0.01916   0.01135  -0.0251   0.9295   1.0000
   1.500   0.2688   0.01899   0.01123  -0.0284   0.9207   1.0000
   1.600   0.2951   0.01879   0.01108  -0.0309   0.9105   1.0000
   1.700   0.3154   0.01863   0.01096  -0.0324   0.8987   1.0000
   1.800   0.3374   0.01841   0.01078  -0.0339   0.8880   1.0000
   1.900   0.3555   0.01821   0.01061  -0.0347   0.8762   1.0000
   2.000   0.3682   0.01808   0.01051  -0.0346   0.8627   1.0000
   2.100   0.3806   0.01795   0.01038  -0.0343   0.8496   1.0000
   2.200   0.3926   0.01781   0.01024  -0.0339   0.8372   1.0000
   2.300   0.4038   0.01766   0.01009  -0.0333   0.8249   1.0000
   2.400   0.4121   0.01760   0.01003  -0.0323   0.8107   1.0000
   2.500   0.4204   0.01755   0.00996  -0.0313   0.7968   1.0000
   2.600   0.4289   0.01749   0.00989  -0.0303   0.7833   1.0000
   2.700   0.4374   0.01743   0.00982  -0.0293   0.7701   1.0000
   2.800   0.4460   0.01737   0.00971  -0.0282   0.7574   1.0000
   2.900   0.4535   0.01737   0.00969  -0.0271   0.7427   1.0000
   3.000   0.4611   0.01738   0.00968  -0.0261   0.7281   1.0000
   3.100   0.4689   0.01739   0.00966  -0.0250   0.7137   1.0000
   3.200   0.4768   0.01741   0.00964  -0.0240   0.6994   1.0000
   3.300   0.4848   0.01744   0.00961  -0.0230   0.6851   1.0000
   3.400   0.4928   0.01747   0.00959  -0.0220   0.6709   1.0000
   3.500   0.5009   0.01751   0.00957  -0.0210   0.6568   1.0000
   3.600   0.5086   0.01758   0.00960  -0.0200   0.6413   1.0000
   3.700   0.5163   0.01766   0.00964  -0.0191   0.6258   1.0000
   3.800   0.5241   0.01775   0.00967  -0.0182   0.6103   1.0000
   3.900   0.5319   0.01784   0.00971  -0.0173   0.5947   1.0000
   4.000   0.5397   0.01794   0.00976  -0.0164   0.5789   1.0000
   4.100   0.5475   0.01806   0.00981  -0.0155   0.5631   1.0000
   4.200   0.5552   0.01818   0.00987  -0.0146   0.5472   1.0000
   4.300   0.5629   0.01831   0.00994  -0.0137   0.5310   1.0000
   4.400   0.5705   0.01845   0.01002  -0.0129   0.5147   1.0000
   4.500   0.5782   0.01861   0.01010  -0.0120   0.4982   1.0000
   4.600   0.5857   0.01877   0.01019  -0.0112   0.4815   1.0000
   4.700   0.5932   0.01895   0.01030  -0.0103   0.4647   1.0000
   4.800   0.6006   0.01914   0.01041  -0.0095   0.4478   1.0000
   4.900   0.6079   0.01935   0.01053  -0.0086   0.4307   1.0000
   5.000   0.6152   0.01957   0.01067  -0.0078   0.4136   1.0000
   5.100   0.6224   0.01981   0.01081  -0.0070   0.3965   1.0000
   5.200   0.6296   0.02006   0.01099  -0.0062   0.3795   1.0000
   5.300   0.6367   0.02033   0.01117  -0.0053   0.3626   1.0000
   5.400   0.6438   0.02063   0.01137  -0.0045   0.3461   1.0000
   5.500   0.6510   0.02094   0.01159  -0.0038   0.3300   1.0000
   5.600   0.6580   0.02127   0.01183  -0.0030   0.3143   1.0000
   5.700   0.6652   0.02162   0.01210  -0.0022   0.2993   1.0000
   5.800   0.6724   0.02199   0.01239  -0.0015   0.2852   1.0000
   5.900   0.6797   0.02238   0.01267  -0.0008   0.2721   1.0000
   6.000   0.6873   0.02279   0.01291  -0.0001   0.2603   1.0000
   6.100   0.6946   0.02317   0.01331   0.0006   0.2479   1.0000
   6.200   0.7021   0.02361   0.01374   0.0012   0.2368   1.0000
   6.300   0.7100   0.02407   0.01404   0.0018   0.2274   1.0000
   6.400   0.7175   0.02448   0.01448   0.0025   0.2174   1.0000
   6.500   0.7256   0.02499   0.01493   0.0030   0.2091   1.0000
   6.600   0.7335   0.02542   0.01533   0.0036   0.2010   1.0000
   6.700   0.7416   0.02596   0.01584   0.0041   0.1937   1.0000
   6.800   0.7496   0.02641   0.01629   0.0047   0.1866   1.0000
   6.900   0.7585   0.02702   0.01677   0.0051   0.1808   1.0000
   7.000   0.7661   0.02752   0.01741   0.0058   0.1744   1.0000
   7.100   0.7748   0.02802   0.01781   0.0062   0.1690   1.0000
   7.200   0.7831   0.02869   0.01850   0.0066   0.1641   1.0000
   7.300   0.7909   0.02925   0.01918   0.0072   0.1591   1.0000
   7.400   0.7996   0.02978   0.01965   0.0076   0.1548   1.0000
   7.500   0.8086   0.03055   0.02034   0.0079   0.1509   1.0000
   7.600   0.8156   0.03118   0.02118   0.0087   0.1468   1.0000
   7.700   0.8235   0.03179   0.02185   0.0092   0.1431   1.0000
   7.800   0.8323   0.03241   0.02242   0.0096   0.1398   1.0000
   7.900   0.8416   0.03336   0.02326   0.0097   0.1369   1.0000
   8.000   0.8472   0.03409   0.02428   0.0106   0.1341   1.0000
   8.100   0.8539   0.03484   0.02519   0.0113   0.1311   1.0000
   8.200   0.8616   0.03552   0.02592   0.0118   0.1283   1.0000
   8.300   0.8699   0.03623   0.02661   0.0122   0.1259   1.0000
   8.400   0.8788   0.03717   0.02748   0.0124   0.1238   1.0000
   8.500   0.8844   0.03830   0.02875   0.0131   0.1221   1.0000
   8.600   0.8882   0.03930   0.03002   0.0141   0.1204   1.0000
   8.700   0.8922   0.04032   0.03126   0.0149   0.1186   1.0000
   8.800   0.8968   0.04131   0.03241   0.0157   0.1167   1.0000
   8.900   0.9021   0.04224   0.03345   0.0164   0.1149   1.0000
   9.000   0.9084   0.04313   0.03439   0.0169   0.1133   1.0000
   9.100   0.9158   0.04407   0.03534   0.0173   0.1120   1.0000
   9.200   0.9229   0.04514   0.03641   0.0176   0.1107   1.0000
   9.300   0.9295   0.04667   0.03791   0.0178   0.1094   1.0000
   9.400   0.9299   0.04806   0.03952   0.0188   0.1088   1.0000
   9.500   0.9290   0.04945   0.04117   0.0199   0.1082   1.0000
   9.600   0.9274   0.05094   0.04289   0.0210   0.1076   1.0000
   9.700   0.9251   0.05251   0.04467   0.0220   0.1071   1.0000
   9.800   0.9222   0.05414   0.04650   0.0229   0.1067   1.0000
   9.900   0.9186   0.05584   0.04838   0.0238   0.1063   1.0000
  10.000   0.9142   0.05759   0.05030   0.0247   0.1061   1.0000
