  
       XFOIL         Version 6.99
  
 Calculated polar for: NACA 0012                                       
  
 1 1 Reynolds number fixed          Mach number fixed         
  
 xtrf =   1.000 (top)        1.000 (bottom)  
 Mach =   0.000     Re =     0.033 e 6     Ncrit =   9.000
  
   alpha    CL        CD       CDp       CM     Top_Xtr  Bot_Xtr
  ------ -------- --------- --------- -------- -------- --------
   0.000   0.0000   0.02414   0.01189  -0.0000   1.0000   1.0000
   0.100  -0.0019   0.02415   0.01190   0.0016   1.0000   1.0000
   0.200  -0.0038   0.02417   0.01192   0.0031   1.0000   1.0000
   0.300  -0.0055   0.02421   0.01195   0.0046   1.0000   1.0000
   0.400  -0.0069   0.02426   0.01199   0.0061   1.0000   1.0000
   0.500  -0.0081   0.02433   0.01205   0.0075   1.0000   1.0000
   0.600  -0.0089   0.02442   0.01212   0.0088   1.0000   1.0000
   0.700  -0.0093   0.02452   0.01221   0.0101   1.0000   1.0000
   0.800  -0.0095   0.02463   0.01231   0.0113   1.0000   1.0000
   0.900  -0.0093   0.02476   0.01242   0.0124   1.0000   1.0000
   1.000  -0.0088   0.02491   0.01256   0.0135   1.0000   1.0000
   1.100  -0.0079   0.02507   0.01270   0.0145   1.0000   1.0000
   1.200  -0.0066   0.02525   0.01287   0.0154   1.0000   1.0000
   1.300  -0.0050   0.02544   0.01305   0.0162   1.0000   1.0000
   1.400  -0.0030   0.02565   0.01325   0.0169   1.0000   1.0000
   1.500  -0.0006   0.02588   0.01347   0.0175   1.0000   1.0000
   1.600   0.0020   0.02613   0.01370   0.0181   1.0000   1.0000
   1.700   0.0048   0.02639   0.01396   0.0186   1.0000   1.0000
   1.800   0.0079   0.02666   0.01423   0.0190   1.0000   1.0000
   1.900   0.0112   0.02696   0.01452   0.0194   1.0000   1.0000
   2.000   0.0146   0.02727   0.01483   0.0197   1.0000   1.0000
   2.100   0.0182   0.02760   0.01516   0.0199   1.0000   1.0000
   2.200   0.0219   0.02794   0.01551   0.0201   1.0000   1.0000
   2.300   0.0257   0.02830   0.01588   0.0203   1.0000   1.0000
   2.400   0.0296   0.02868   0.01626   0.0204   1.0000   1.0000
   2.500   0.0335   0.02908   0.01667   0.0204   1.0000   1.0000
   2.600   0.0376   0.02949   0.01709   0.0204   1.0000   1.0000
   2.700   0.0416   0.02993   0.01753   0.0204   1.0000   1.0000
   2.800   0.0834   0.03110   0.01882   0.0133   0.9836   1.0000
   2.900   0.1191   0.03205   0.01988   0.0075   0.9664   1.0000
   3.000   0.1525   0.03288   0.02083   0.0024   0.9489   1.0000
   3.100   0.1850   0.03363   0.02169  -0.0023   0.9312   1.0000
   3.200   0.2177   0.03430   0.02248  -0.0068   0.9132   1.0000
   3.300   0.2511   0.03487   0.02320  -0.0111   0.8948   1.0000
   3.400   0.2897   0.03533   0.02383  -0.0160   0.8755   1.0000
   3.500   0.3207   0.03566   0.02431  -0.0194   0.8564   1.0000
   3.600   0.3484   0.03593   0.02472  -0.0220   0.8372   1.0000
   3.700   0.3792   0.03606   0.02503  -0.0248   0.8169   1.0000
   3.800   0.4122   0.03598   0.02514  -0.0274   0.7965   1.0000
   3.900   0.4573   0.03539   0.02477  -0.0306   0.7742   1.0000
   4.000   0.4747   0.03536   0.02484  -0.0305   0.7556   1.0000
   4.100   0.4916   0.03529   0.02487  -0.0302   0.7369   1.0000
   4.200   0.5081   0.03518   0.02484  -0.0296   0.7183   1.0000
   4.300   0.5243   0.03500   0.02473  -0.0288   0.6994   1.0000
   4.400   0.5397   0.03480   0.02459  -0.0278   0.6807   1.0000
   4.500   0.5547   0.03455   0.02438  -0.0265   0.6619   1.0000
   4.600   0.5684   0.03433   0.02419  -0.0250   0.6434   1.0000
   4.700   0.5813   0.03411   0.02398  -0.0234   0.6249   1.0000
   4.800   0.5934   0.03394   0.02379  -0.0217   0.6065   1.0000
   4.900   0.6010   0.03410   0.02394  -0.0201   0.5884   1.0000
   5.000   0.6087   0.03427   0.02410  -0.0185   0.5701   1.0000
   5.100   0.6166   0.03446   0.02427  -0.0169   0.5520   1.0000
   5.200   0.6245   0.03464   0.02443  -0.0153   0.5339   1.0000
   5.300   0.6325   0.03486   0.02461  -0.0137   0.5160   1.0000
   5.400   0.6404   0.03512   0.02482  -0.0122   0.4985   1.0000
   5.500   0.6483   0.03539   0.02506  -0.0108   0.4812   1.0000
   5.600   0.6559   0.03573   0.02537  -0.0094   0.4645   1.0000
   5.700   0.6634   0.03614   0.02573  -0.0081   0.4485   1.0000
   5.800   0.6709   0.03655   0.02609  -0.0068   0.4328   1.0000
   5.900   0.6785   0.03701   0.02650  -0.0056   0.4180   1.0000
   6.000   0.6868   0.03746   0.02688  -0.0045   0.4039   1.0000
   6.100   0.6959   0.03782   0.02712  -0.0033   0.3899   1.0000
   6.200   0.7011   0.03859   0.02796  -0.0024   0.3772   1.0000
   6.300   0.7060   0.03949   0.02892  -0.0015   0.3660   1.0000
   6.400   0.7145   0.04004   0.02939  -0.0005   0.3546   1.0000
   6.500   0.7225   0.04061   0.02994   0.0004   0.3433   1.0000
   6.600   0.7256   0.04178   0.03125   0.0012   0.3346   1.0000
   6.700   0.7369   0.04218   0.03147   0.0021   0.3245   1.0000
   6.800   0.7372   0.04360   0.03313   0.0028   0.3173   1.0000
   6.900   0.7487   0.04400   0.03337   0.0036   0.3079   1.0000
   7.000   0.7482   0.04558   0.03519   0.0043   0.3023   1.0000
   7.100   0.7595   0.04605   0.03554   0.0051   0.2940   1.0000
   7.200   0.7601   0.04758   0.03724   0.0057   0.2891   1.0000
   7.300   0.7610   0.04904   0.03885   0.0063   0.2840   1.0000
   7.400   0.7754   0.04932   0.03893   0.0071   0.2761   1.0000
   7.500   0.7718   0.05127   0.04114   0.0076   0.2735   1.0000
   7.600   0.7695   0.05312   0.04317   0.0081   0.2707   1.0000
   7.700   0.7706   0.05464   0.04478   0.0086   0.2669   1.0000
   7.800   0.7859   0.05490   0.04489   0.0094   0.2598   1.0000
   7.900   0.7804   0.05704   0.04723   0.0098   0.2585   1.0000
   8.000   0.7748   0.05922   0.04955   0.0101   0.2573   1.0000
   8.100   0.7688   0.06144   0.05190   0.0102   0.2564   1.0000
   8.200   0.7623   0.06374   0.05429   0.0103   0.2559   1.0000
   8.300   0.7550   0.06614   0.05676   0.0102   0.2557   1.0000
   8.400   0.7472   0.06862   0.05928   0.0099   0.2560   1.0000
   8.500   0.7386   0.07119   0.06189   0.0095   0.2566   1.0000
   8.600   0.7301   0.07379   0.06451   0.0089   0.2573   1.0000
   8.700   0.7222   0.07639   0.06711   0.0083   0.2580   1.0000
   8.800   0.7152   0.07896   0.06969   0.0076   0.2587   1.0000
   8.900   0.7088   0.08144   0.07216   0.0070   0.2594   1.0000
   9.000   0.7035   0.08386   0.07457   0.0064   0.2600   1.0000
   9.100   0.6993   0.08629   0.07698   0.0057   0.2605   1.0000
   9.400   0.6111   0.10238   0.09274  -0.0092   0.3017   1.0000
   9.500   0.6131   0.10479   0.09515  -0.0100   0.3060   1.0000
   9.600   0.6224   0.10709   0.09751  -0.0104   0.3093   1.0000
  10.000   0.5340   0.12424   0.11439  -0.0319   0.5056   1.0000
