  
       XFOIL         Version 6.99
  
 Calculated polar for: NACA 0012                                       
  
 1 1 Reynolds number fixed          Mach number fixed         
  
 xtrf =   1.000 (top)        1.000 (bottom)  
 Mach =   0.000     Re =     0.052 e 6     Ncrit =   9.000
  
   alpha    CL        CD       CDp       CM     Top_Xtr  Bot_Xtr
  ------ -------- --------- --------- -------- -------- --------
   0.000   0.0000   0.02046   0.01091  -0.0000   1.0000   1.0000
   0.100  -0.0058   0.02046   0.01092   0.0020   1.0000   1.0000
   0.200  -0.0113   0.02049   0.01094   0.0040   1.0000   1.0000
   0.300  -0.0164   0.02053   0.01097   0.0059   1.0000   1.0000
   0.400  -0.0207   0.02060   0.01103   0.0077   1.0000   1.0000
   0.500  -0.0244   0.02068   0.01109   0.0094   1.0000   1.0000
   0.600  -0.0271   0.02078   0.01118   0.0109   1.0000   1.0000
   0.700  -0.0291   0.02090   0.01128   0.0123   1.0000   1.0000
   0.800  -0.0303   0.02104   0.01141   0.0135   1.0000   1.0000
   0.900  -0.0310   0.02119   0.01155   0.0147   1.0000   1.0000
   1.000  -0.0309   0.02137   0.01171   0.0157   1.0000   1.0000
   1.100  -0.0301   0.02157   0.01189   0.0165   1.0000   1.0000
   1.200  -0.0287   0.02178   0.01209   0.0173   1.0000   1.0000
   1.300  -0.0068   0.02216   0.01248   0.0144   0.9943   1.0000
   1.400   0.0265   0.02258   0.01294   0.0094   0.9845   1.0000
   1.500   0.0583   0.02293   0.01334   0.0049   0.9740   1.0000
   1.600   0.0894   0.02324   0.01370   0.0006   0.9634   1.0000
   1.700   0.1233   0.02351   0.01403  -0.0040   0.9531   1.0000
   1.800   0.1567   0.02371   0.01430  -0.0085   0.9421   1.0000
   1.900   0.1856   0.02384   0.01450  -0.0120   0.9299   1.0000
   2.000   0.2191   0.02391   0.01466  -0.0162   0.9185   1.0000
   2.100   0.2659   0.02382   0.01470  -0.0225   0.9083   1.0000
   2.200   0.2938   0.02375   0.01472  -0.0254   0.8949   1.0000
   2.300   0.3215   0.02363   0.01468  -0.0280   0.8818   1.0000
   2.400   0.3504   0.02341   0.01456  -0.0307   0.8689   1.0000
   2.500   0.3804   0.02309   0.01432  -0.0332   0.8567   1.0000
   2.600   0.4001   0.02288   0.01417  -0.0340   0.8428   1.0000
   2.700   0.4151   0.02276   0.01409  -0.0340   0.8284   1.0000
   2.800   0.4292   0.02262   0.01400  -0.0338   0.8141   1.0000
   2.900   0.4426   0.02247   0.01388  -0.0333   0.8001   1.0000
   3.000   0.4554   0.02231   0.01373  -0.0327   0.7864   1.0000
   3.100   0.4679   0.02213   0.01355  -0.0319   0.7730   1.0000
   3.200   0.4776   0.02205   0.01347  -0.0308   0.7586   1.0000
   3.300   0.4859   0.02202   0.01344  -0.0296   0.7435   1.0000
   3.400   0.4943   0.02200   0.01341  -0.0284   0.7285   1.0000
   3.500   0.5026   0.02198   0.01338  -0.0271   0.7135   1.0000
   3.600   0.5109   0.02197   0.01336  -0.0258   0.6985   1.0000
   3.700   0.5191   0.02197   0.01332  -0.0246   0.6833   1.0000
   3.800   0.5272   0.02197   0.01329  -0.0233   0.6681   1.0000
   3.900   0.5353   0.02199   0.01327  -0.0220   0.6526   1.0000
   4.000   0.5433   0.02203   0.01326  -0.0208   0.6369   1.0000
   4.100   0.5512   0.02209   0.01326  -0.0195   0.6209   1.0000
   4.200   0.5589   0.02216   0.01327  -0.0183   0.6047   1.0000
   4.300   0.5666   0.02226   0.01331  -0.0171   0.5882   1.0000
   4.400   0.5741   0.02238   0.01338  -0.0160   0.5712   1.0000
   4.500   0.5816   0.02252   0.01345  -0.0148   0.5541   1.0000
   4.600   0.5890   0.02267   0.01354  -0.0137   0.5368   1.0000
   4.700   0.5963   0.02284   0.01364  -0.0126   0.5191   1.0000
   4.800   0.6036   0.02303   0.01376  -0.0115   0.5014   1.0000
   4.900   0.6109   0.02324   0.01390  -0.0104   0.4836   1.0000
   5.000   0.6182   0.02347   0.01404  -0.0094   0.4657   1.0000
   5.100   0.6254   0.02371   0.01419  -0.0084   0.4479   1.0000
   5.200   0.6327   0.02398   0.01437  -0.0074   0.4303   1.0000
   5.300   0.6399   0.02426   0.01457  -0.0064   0.4129   1.0000
   5.400   0.6471   0.02457   0.01479  -0.0054   0.3959   1.0000
   5.500   0.6543   0.02491   0.01503  -0.0045   0.3792   1.0000
   5.600   0.6614   0.02527   0.01530  -0.0036   0.3630   1.0000
   5.700   0.6686   0.02566   0.01561  -0.0027   0.3474   1.0000
   5.800   0.6760   0.02608   0.01596  -0.0019   0.3326   1.0000
   5.900   0.6833   0.02651   0.01631  -0.0011   0.3185   1.0000
   6.000   0.6910   0.02695   0.01663  -0.0003   0.3055   1.0000
   6.100   0.6991   0.02740   0.01695   0.0004   0.2934   1.0000
   6.200   0.7060   0.02791   0.01753   0.0012   0.2811   1.0000
   6.300   0.7135   0.02845   0.01804   0.0019   0.2701   1.0000
   6.500   0.7292   0.02954   0.01907   0.0032   0.2505   1.0000
   6.600   0.7376   0.03012   0.01954   0.0037   0.2421   1.0000
   6.700   0.7450   0.03069   0.02017   0.0044   0.2334   1.0000
   6.800   0.7535   0.03135   0.02076   0.0049   0.2264   1.0000
   6.900   0.7606   0.03200   0.02152   0.0056   0.2189   1.0000
   7.000   0.7702   0.03263   0.02194   0.0059   0.2127   1.0000
   7.100   0.7759   0.03340   0.02297   0.0067   0.2064   1.0000
   7.200   0.7845   0.03403   0.02358   0.0072   0.2007   1.0000
   7.300   0.7927   0.03485   0.02436   0.0077   0.1958   1.0000
   7.400   0.7983   0.03570   0.02544   0.0085   0.1908   1.0000
   7.500   0.8066   0.03636   0.02608   0.0090   0.1859   1.0000
   7.600   0.8162   0.03720   0.02676   0.0092   0.1818   1.0000
   7.700   0.8201   0.03827   0.02815   0.0102   0.1785   1.0000
   7.800   0.8255   0.03924   0.02930   0.0109   0.1748   1.0000
   7.900   0.8334   0.03997   0.03002   0.0114   0.1709   1.0000
   8.000   0.8438   0.04077   0.03064   0.0115   0.1672   1.0000
   8.100   0.8465   0.04202   0.03215   0.0125   0.1650   1.0000
   8.200   0.8490   0.04331   0.03372   0.0134   0.1629   1.0000
   8.300   0.8520   0.04460   0.03522   0.0142   0.1608   1.0000
   8.400   0.8559   0.04577   0.03654   0.0149   0.1586   1.0000
   8.500   0.8623   0.04670   0.03749   0.0154   0.1560   1.0000
   8.600   0.8746   0.04736   0.03794   0.0154   0.1527   1.0000
   8.700   0.8769   0.04883   0.03955   0.0161   0.1512   1.0000
   8.800   0.8758   0.05042   0.04140   0.0171   0.1503   1.0000
   8.900   0.8746   0.05209   0.04330   0.0180   0.1495   1.0000
   9.000   0.8730   0.05384   0.04525   0.0188   0.1490   1.0000
   9.100   0.8706   0.05565   0.04724   0.0196   0.1486   1.0000
   9.200   0.8669   0.05754   0.04931   0.0203   0.1483   1.0000
   9.300   0.8622   0.05950   0.05143   0.0210   0.1481   1.0000
   9.400   0.8565   0.06154   0.05361   0.0216   0.1481   1.0000
   9.500   0.8498   0.06364   0.05584   0.0220   0.1482   1.0000
   9.600   0.8423   0.06580   0.05811   0.0224   0.1485   1.0000
   9.700   0.8341   0.06802   0.06042   0.0227   0.1488   1.0000
   9.800   0.8255   0.07028   0.06275   0.0228   0.1493   1.0000
   9.900   0.8171   0.07256   0.06509   0.0228   0.1498   1.0000
  10.000   0.8087   0.07480   0.06737   0.0228   0.1503   1.0000
