  
       XFOIL         Version 6.99
  
 Calculated polar for: NACA 0012                                       
  
 1 1 Reynolds number fixed          Mach number fixed         
  
 xtrf =   1.000 (top)        1.000 (bottom)  
 Mach =   0.000     Re =     0.025 e 6     Ncrit =   9.000
  
   alpha    CL        CD       CDp       CM     Top_Xtr  Bot_Xtr
  ------ -------- --------- --------- -------- -------- --------
   0.000   0.0000   0.02681   0.01264  -0.0000   1.0000   1.0000
   0.100  -0.0004   0.02682   0.01264   0.0014   1.0000   1.0000
   0.200  -0.0007   0.02684   0.01266   0.0027   1.0000   1.0000
   0.300  -0.0009   0.02687   0.01269   0.0040   1.0000   1.0000
   0.400  -0.0010   0.02692   0.01273   0.0053   1.0000   1.0000
   0.500  -0.0010   0.02698   0.01279   0.0066   1.0000   1.0000
   0.600  -0.0007   0.02706   0.01285   0.0078   1.0000   1.0000
   0.700  -0.0003   0.02715   0.01293   0.0090   1.0000   1.0000
   0.800   0.0003   0.02725   0.01302   0.0101   1.0000   1.0000
   0.900   0.0011   0.02737   0.01313   0.0112   1.0000   1.0000
   1.000   0.0021   0.02750   0.01325   0.0123   1.0000   1.0000
   1.100   0.0034   0.02765   0.01338   0.0132   1.0000   1.0000
   1.200   0.0049   0.02781   0.01353   0.0141   1.0000   1.0000
   1.300   0.0067   0.02799   0.01369   0.0150   1.0000   1.0000
   1.400   0.0087   0.02818   0.01387   0.0158   1.0000   1.0000
   1.500   0.0110   0.02838   0.01407   0.0165   1.0000   1.0000
   1.600   0.0135   0.02861   0.01428   0.0171   1.0000   1.0000
   1.700   0.0163   0.02884   0.01451   0.0177   1.0000   1.0000
   1.800   0.0192   0.02910   0.01476   0.0182   1.0000   1.0000
   1.900   0.0223   0.02936   0.01503   0.0187   1.0000   1.0000
   2.000   0.0255   0.02965   0.01531   0.0191   1.0000   1.0000
   2.100   0.0289   0.02995   0.01562   0.0195   1.0000   1.0000
   2.200   0.0324   0.03027   0.01594   0.0198   1.0000   1.0000
   2.300   0.0360   0.03060   0.01628   0.0200   1.0000   1.0000
   2.400   0.0396   0.03095   0.01663   0.0202   1.0000   1.0000
   2.500   0.0434   0.03132   0.01701   0.0204   1.0000   1.0000
   2.600   0.0472   0.03170   0.01740   0.0205   1.0000   1.0000
   2.700   0.0510   0.03210   0.01782   0.0206   1.0000   1.0000
   2.800   0.0550   0.03252   0.01825   0.0207   1.0000   1.0000
   2.900   0.0589   0.03296   0.01870   0.0207   1.0000   1.0000
   3.000   0.0629   0.03341   0.01917   0.0206   1.0000   1.0000
   3.100   0.0669   0.03389   0.01966   0.0206   1.0000   1.0000
   3.200   0.0709   0.03438   0.02016   0.0205   1.0000   1.0000
   3.300   0.0749   0.03488   0.02069   0.0203   1.0000   1.0000
   3.400   0.0789   0.03541   0.02125   0.0202   1.0000   1.0000
   3.500   0.0830   0.03595   0.02181   0.0200   1.0000   1.0000
   3.600   0.0870   0.03652   0.02240   0.0197   1.0000   1.0000
   3.700   0.0910   0.03710   0.02301   0.0195   1.0000   1.0000
   3.800   0.1211   0.03853   0.02456   0.0140   0.9862   1.0000
   3.900   0.1634   0.04027   0.02647   0.0064   0.9620   1.0000
   4.000   0.2036   0.04183   0.02823  -0.0003   0.9380   1.0000
   4.100   0.2314   0.04296   0.02950  -0.0045   0.9166   1.0000
   4.200   0.2733   0.04432   0.03105  -0.0106   0.8908   1.0000
   4.300   0.2939   0.04517   0.03204  -0.0130   0.8707   1.0000
   4.400   0.3177   0.04604   0.03306  -0.0156   0.8491   1.0000
   4.500   0.3556   0.04693   0.03417  -0.0199   0.8230   1.0000
   4.600   0.3729   0.04763   0.03499  -0.0211   0.8030   1.0000
   4.700   0.3968   0.04828   0.03580  -0.0229   0.7803   1.0000
   4.800   0.4302   0.04877   0.03651  -0.0254   0.7541   1.0000
   4.900   0.4485   0.04929   0.03718  -0.0260   0.7326   1.0000
   5.000   0.4848   0.04931   0.03744  -0.0275   0.7045   1.0000
   5.100   0.4980   0.04976   0.03798  -0.0269   0.6848   1.0000
   5.200   0.5164   0.05000   0.03835  -0.0265   0.6633   1.0000
   5.300   0.5449   0.04966   0.03818  -0.0259   0.6374   1.0000
   5.400   0.5559   0.05008   0.03868  -0.0248   0.6191   1.0000
   5.500   0.5673   0.05041   0.03908  -0.0235   0.6002   1.0000
   5.600   0.5790   0.05075   0.03949  -0.0222   0.5821   1.0000
   5.700   0.5914   0.05100   0.03980  -0.0208   0.5636   1.0000
   5.800   0.6190   0.05012   0.03899  -0.0187   0.5390   1.0000
   5.900   0.6120   0.05181   0.04070  -0.0180   0.5301   1.0000
   6.000   0.6356   0.05110   0.04003  -0.0157   0.5076   1.0000
   6.200   0.6391   0.05337   0.04237  -0.0138   0.4852   1.0000
   6.300   0.6500   0.05374   0.04276  -0.0123   0.4702   1.0000
   6.400   0.6621   0.05402   0.04305  -0.0108   0.4553   1.0000
   6.500   0.6531   0.05621   0.04528  -0.0107   0.4507   1.0000
   6.600   0.6653   0.05660   0.04569  -0.0093   0.4374   1.0000
   6.700   0.6578   0.05870   0.04781  -0.0092   0.4328   1.0000
   6.800   0.6693   0.05914   0.04827  -0.0078   0.4203   1.0000
   6.900   0.6614   0.06133   0.05048  -0.0079   0.4169   1.0000
   7.000   0.6756   0.06169   0.05086  -0.0065   0.4050   1.0000
   7.100   0.6661   0.06409   0.05327  -0.0068   0.4031   1.0000
   7.200   0.6578   0.06638   0.05557  -0.0071   0.4011   1.0000
   7.300   0.6526   0.06842   0.05760  -0.0073   0.3980   1.0000
   7.400   0.6646   0.06903   0.05824  -0.0060   0.3878   1.0000
   7.500   0.6558   0.07144   0.06064  -0.0066   0.3870   1.0000
   7.600   0.6474   0.07384   0.06301  -0.0072   0.3865   1.0000
   7.700   0.6395   0.07622   0.06536  -0.0079   0.3862   1.0000
   7.800   0.6319   0.07856   0.06767  -0.0086   0.3862   1.0000
   7.900   0.6246   0.08086   0.06994  -0.0093   0.3865   1.0000
   8.000   0.6180   0.08313   0.07216  -0.0101   0.3868   1.0000
   8.100   0.6124   0.08533   0.07432  -0.0108   0.3870   1.0000
   8.200   0.6076   0.08747   0.07644  -0.0115   0.3872   1.0000
   8.300   0.6034   0.08956   0.07850  -0.0121   0.3874   1.0000
   8.400   0.6000   0.09163   0.08054  -0.0128   0.3877   1.0000
   8.500   0.5976   0.09367   0.08256  -0.0134   0.3882   1.0000
   8.600   0.5962   0.09571   0.08459  -0.0140   0.3888   1.0000
   8.700   0.5963   0.09776   0.08663  -0.0146   0.3896   1.0000
   9.000   0.5667   0.10527   0.09400  -0.0197   0.4207   1.0000
   9.500   0.4649   0.11693   0.10535  -0.0363   0.6915   1.0000
   9.600   0.4617   0.11754   0.10593  -0.0356   0.6866   1.0000
   9.700   0.4685   0.11926   0.10769  -0.0360   0.6767   1.0000
   9.800   0.4745   0.12130   0.10974  -0.0366   0.6718   1.0000
   9.900   0.4719   0.12170   0.11014  -0.0358   0.6641   1.0000
  10.000   0.4878   0.12518   0.11366  -0.0375   0.6563   1.0000
