  
       XFOIL         Version 6.99
  
 Calculated polar for: NACA 0012                                       
  
 1 1 Reynolds number fixed          Mach number fixed         
  
 xtrf =   1.000 (top)        1.000 (bottom)  
 Mach =   0.000     Re =     0.045 e 6     Ncrit =   9.000
  
   alpha    CL        CD       CDp       CM     Top_Xtr  Bot_Xtr
  ------ -------- --------- --------- -------- -------- --------
   0.000   0.0000   0.02161   0.01121  -0.0000   1.0000   1.0000
   0.100  -0.0043   0.02162   0.01121   0.0018   1.0000   1.0000
   0.200  -0.0083   0.02165   0.01123   0.0037   1.0000   1.0000
   0.300  -0.0121   0.02169   0.01127   0.0054   1.0000   1.0000
   0.400  -0.0154   0.02175   0.01132   0.0071   1.0000   1.0000
   0.500  -0.0181   0.02183   0.01138   0.0087   1.0000   1.0000
   0.600  -0.0201   0.02192   0.01146   0.0102   1.0000   1.0000
   0.700  -0.0216   0.02203   0.01156   0.0115   1.0000   1.0000
   0.800  -0.0225   0.02216   0.01167   0.0128   1.0000   1.0000
   0.900  -0.0230   0.02231   0.01180   0.0139   1.0000   1.0000
   1.000  -0.0228   0.02247   0.01195   0.0149   1.0000   1.0000
   1.100  -0.0221   0.02266   0.01212   0.0159   1.0000   1.0000
   1.200  -0.0208   0.02286   0.01231   0.0167   1.0000   1.0000
   1.300  -0.0190   0.02308   0.01252   0.0174   1.0000   1.0000
   1.400  -0.0168   0.02332   0.01274   0.0180   1.0000   1.0000
   1.500  -0.0143   0.02357   0.01299   0.0185   1.0000   1.0000
   1.600  -0.0114   0.02384   0.01325   0.0189   1.0000   1.0000
   1.700  -0.0082   0.02413   0.01354   0.0193   1.0000   1.0000
   1.800   0.0266   0.02474   0.01420   0.0138   0.9885   1.0000
   1.900   0.0604   0.02530   0.01482   0.0088   0.9765   1.0000
   2.000   0.0931   0.02578   0.01537   0.0040   0.9641   1.0000
   2.100   0.1261   0.02621   0.01587  -0.0006   0.9516   1.0000
   2.200   0.1619   0.02658   0.01633  -0.0056   0.9389   1.0000
   2.300   0.1953   0.02684   0.01669  -0.0100   0.9254   1.0000
   2.400   0.2248   0.02703   0.01697  -0.0135   0.9112   1.0000
   2.500   0.2564   0.02716   0.01721  -0.0173   0.8970   1.0000
   2.600   0.2929   0.02718   0.01736  -0.0217   0.8824   1.0000
   2.700   0.3293   0.02707   0.01740  -0.0257   0.8677   1.0000
   2.800   0.3621   0.02687   0.01732  -0.0288   0.8529   1.0000
   2.900   0.3925   0.02660   0.01716  -0.0313   0.8381   1.0000
   3.000   0.4199   0.02627   0.01695  -0.0330   0.8234   1.0000
   3.100   0.4406   0.02602   0.01676  -0.0336   0.8083   1.0000
   3.200   0.4551   0.02589   0.01668  -0.0333   0.7929   1.0000
   3.300   0.4684   0.02577   0.01660  -0.0327   0.7775   1.0000
   3.400   0.4807   0.02565   0.01651  -0.0319   0.7621   1.0000
   3.500   0.4922   0.02555   0.01643  -0.0309   0.7468   1.0000
   3.600   0.5029   0.02545   0.01634  -0.0298   0.7314   1.0000
   3.700   0.5131   0.02536   0.01627  -0.0286   0.7160   1.0000
   3.800   0.5228   0.02529   0.01619  -0.0273   0.7004   1.0000
   3.900   0.5322   0.02523   0.01612  -0.0260   0.6848   1.0000
   4.000   0.5411   0.02519   0.01606  -0.0246   0.6688   1.0000
   4.100   0.5496   0.02518   0.01602  -0.0232   0.6527   1.0000
   4.200   0.5579   0.02520   0.01600  -0.0218   0.6363   1.0000
   4.300   0.5659   0.02524   0.01600  -0.0204   0.6196   1.0000
   4.400   0.5738   0.02531   0.01604  -0.0190   0.6026   1.0000
   4.500   0.5815   0.02541   0.01609  -0.0176   0.5854   1.0000
   4.600   0.5890   0.02552   0.01615  -0.0163   0.5678   1.0000
   4.700   0.5965   0.02566   0.01623  -0.0150   0.5501   1.0000
   4.800   0.6040   0.02582   0.01632  -0.0137   0.5323   1.0000
   4.900   0.6115   0.02600   0.01643  -0.0124   0.5143   1.0000
   5.000   0.6189   0.02620   0.01655  -0.0112   0.4964   1.0000
   5.100   0.6264   0.02642   0.01668  -0.0100   0.4786   1.0000
   5.200   0.6338   0.02667   0.01683  -0.0088   0.4609   1.0000
   5.300   0.6413   0.02694   0.01703  -0.0077   0.4434   1.0000
   5.400   0.6487   0.02725   0.01723  -0.0066   0.4262   1.0000
   5.500   0.6560   0.02758   0.01747  -0.0056   0.4093   1.0000
   5.600   0.6633   0.02796   0.01777  -0.0046   0.3930   1.0000
   5.700   0.6705   0.02836   0.01810  -0.0036   0.3771   1.0000
   5.800   0.6775   0.02879   0.01847  -0.0027   0.3617   1.0000
   5.900   0.6847   0.02928   0.01892  -0.0018   0.3473   1.0000
   6.000   0.6920   0.02978   0.01937  -0.0009   0.3337   1.0000
   6.100   0.6998   0.03026   0.01975  -0.0001   0.3210   1.0000
   6.200   0.7086   0.03071   0.02006   0.0006   0.3092   1.0000
   6.300   0.7148   0.03137   0.02081   0.0014   0.2975   1.0000
   6.400   0.7222   0.03198   0.02141   0.0022   0.2870   1.0000
   6.500   0.7314   0.03246   0.02172   0.0028   0.2772   1.0000
   6.600   0.7371   0.03326   0.02268   0.0036   0.2680   1.0000
   6.700   0.7466   0.03382   0.02307   0.0041   0.2597   1.0000
   6.800   0.7521   0.03462   0.02406   0.0049   0.2515   1.0000
   6.900   0.7620   0.03520   0.02444   0.0053   0.2442   1.0000
   7.000   0.7666   0.03617   0.02567   0.0062   0.2375   1.0000
   7.100   0.7757   0.03676   0.02617   0.0067   0.2309   1.0000
   7.200   0.7816   0.03773   0.02726   0.0074   0.2253   1.0000
   7.300   0.7875   0.03863   0.02830   0.0081   0.2196   1.0000
   7.400   0.7975   0.03927   0.02880   0.0084   0.2143   1.0000
   7.500   0.8018   0.04044   0.03016   0.0092   0.2103   1.0000
   7.600   0.8057   0.04157   0.03149   0.0100   0.2060   1.0000
   7.700   0.8136   0.04233   0.03225   0.0106   0.2013   1.0000
   7.800   0.8236   0.04317   0.03292   0.0108   0.1971   1.0000
   7.900   0.8244   0.04461   0.03469   0.0118   0.1947   1.0000
   8.000   0.8260   0.04604   0.03636   0.0126   0.1922   1.0000
   8.100   0.8289   0.04733   0.03780   0.0134   0.1895   1.0000
   8.200   0.8351   0.04828   0.03878   0.0139   0.1861   1.0000
   8.300   0.8490   0.04892   0.03915   0.0139   0.1820   1.0000
   8.400   0.8473   0.05059   0.04111   0.0149   0.1807   1.0000
   8.500   0.8455   0.05233   0.04309   0.0157   0.1796   1.0000
   8.600   0.8433   0.05415   0.04512   0.0164   0.1787   1.0000
   8.700   0.8404   0.05604   0.04721   0.0171   0.1781   1.0000
   8.800   0.8367   0.05799   0.04933   0.0177   0.1775   1.0000
   8.900   0.8319   0.06002   0.05151   0.0182   0.1772   1.0000
   9.000   0.8261   0.06214   0.05376   0.0187   0.1771   1.0000
   9.100   0.8191   0.06436   0.05607   0.0190   0.1772   1.0000
   9.200   0.8110   0.06667   0.05848   0.0192   0.1775   1.0000
   9.300   0.8023   0.06905   0.06094   0.0192   0.1781   1.0000
   9.400   0.7932   0.07149   0.06344   0.0191   0.1787   1.0000
   9.500   0.7844   0.07395   0.06594   0.0189   0.1794   1.0000
   9.600   0.7762   0.07638   0.06841   0.0186   0.1800   1.0000
   9.700   0.7684   0.07872   0.07076   0.0184   0.1806   1.0000
   9.800   0.7618   0.08109   0.07313   0.0180   0.1812   1.0000
   9.900   0.7567   0.08347   0.07552   0.0175   0.1817   1.0000
  10.000   0.7532   0.08586   0.07790   0.0170   0.1821   1.0000
