  
       XFOIL         Version 6.99
  
 Calculated polar for: NACA 0012                                       
  
 1 1 Reynolds number fixed          Mach number fixed         
  
 xtrf =   1.000 (top)        1.000 (bottom)  
 Mach =   0.000     Re =     0.115 e 6     Ncrit =   9.000
  
   alpha    CL        CD       CDp       CM     Top_Xtr  Bot_Xtr
  ------ -------- --------- --------- -------- -------- --------
   0.000  -0.0000   0.01581   0.00949   0.0000   0.9740   0.9740
   0.100   0.0321   0.01580   0.00948  -0.0041   0.9714   0.9770
   0.200   0.0618   0.01576   0.00945  -0.0079   0.9678   0.9805
   0.300   0.0911   0.01568   0.00938  -0.0115   0.9632   0.9836
   0.400   0.1232   0.01556   0.00927  -0.0156   0.9595   0.9856
   0.500   0.1549   0.01540   0.00913  -0.0196   0.9560   0.9878
   0.600   0.1816   0.01525   0.00900  -0.0227   0.9487   0.9910
   0.700   0.2099   0.01506   0.00884  -0.0260   0.9429   0.9939
   0.800   0.2368   0.01485   0.00865  -0.0290   0.9347   0.9963
   0.900   0.2633   0.01462   0.00845  -0.0319   0.9264   0.9992
   1.000   0.2795   0.01445   0.00829  -0.0329   0.9146   1.0000
   1.100   0.2925   0.01428   0.00811  -0.0332   0.9027   1.0000
   1.300   0.3132   0.01399   0.00780  -0.0325   0.8773   1.0000
   1.400   0.3216   0.01387   0.00767  -0.0319   0.8638   1.0000
   1.500   0.3298   0.01377   0.00755  -0.0311   0.8507   1.0000
   1.600   0.3378   0.01367   0.00742  -0.0303   0.8381   1.0000
   1.700   0.3455   0.01358   0.00730  -0.0294   0.8253   1.0000
   1.800   0.3531   0.01352   0.00722  -0.0286   0.8113   1.0000
   1.900   0.3609   0.01347   0.00713  -0.0278   0.7977   1.0000
   2.000   0.3687   0.01343   0.00705  -0.0270   0.7845   1.0000
   2.100   0.3768   0.01339   0.00696  -0.0262   0.7716   1.0000
   2.200   0.3848   0.01336   0.00688  -0.0254   0.7583   1.0000
   2.300   0.3930   0.01335   0.00684  -0.0247   0.7441   1.0000
   2.400   0.4013   0.01335   0.00679  -0.0240   0.7301   1.0000
   2.500   0.4097   0.01335   0.00675  -0.0234   0.7163   1.0000
   2.600   0.4181   0.01336   0.00670  -0.0227   0.7028   1.0000
   2.700   0.4266   0.01339   0.00666  -0.0220   0.6894   1.0000
   2.800   0.4351   0.01341   0.00664  -0.0214   0.6751   1.0000
   2.900   0.4436   0.01345   0.00664  -0.0208   0.6606   1.0000
   3.000   0.4521   0.01349   0.00663  -0.0202   0.6463   1.0000
   3.100   0.4605   0.01355   0.00663  -0.0196   0.6321   1.0000
   3.200   0.4690   0.01361   0.00663  -0.0190   0.6181   1.0000
   3.300   0.4774   0.01368   0.00663  -0.0184   0.6041   1.0000
   3.400   0.4858   0.01375   0.00663  -0.0178   0.5901   1.0000
   3.500   0.4942   0.01382   0.00667  -0.0172   0.5752   1.0000
   3.600   0.5026   0.01391   0.00670  -0.0166   0.5604   1.0000
   3.700   0.5109   0.01399   0.00674  -0.0160   0.5456   1.0000
   3.800   0.5193   0.01409   0.00678  -0.0154   0.5309   1.0000
   3.900   0.5275   0.01419   0.00682  -0.0148   0.5162   1.0000
   4.000   0.5357   0.01430   0.00687  -0.0142   0.5014   1.0000
   4.100   0.5439   0.01442   0.00692  -0.0136   0.4867   1.0000
   4.200   0.5519   0.01455   0.00697  -0.0130   0.4719   1.0000
   4.300   0.5599   0.01468   0.00705  -0.0124   0.4568   1.0000
   4.400   0.5679   0.01481   0.00712  -0.0118   0.4412   1.0000
   4.500   0.5759   0.01495   0.00721  -0.0111   0.4256   1.0000
   4.600   0.5837   0.01510   0.00730  -0.0105   0.4099   1.0000
   4.700   0.5915   0.01526   0.00740  -0.0099   0.3941   1.0000
   4.800   0.5992   0.01543   0.00750  -0.0093   0.3782   1.0000
   4.900   0.6069   0.01561   0.00761  -0.0086   0.3623   1.0000
   5.000   0.6144   0.01581   0.00773  -0.0080   0.3463   1.0000
   5.100   0.6219   0.01601   0.00787  -0.0073   0.3304   1.0000
   5.200   0.6294   0.01623   0.00802  -0.0067   0.3146   1.0000
   5.300   0.6367   0.01647   0.00818  -0.0060   0.2990   1.0000
   5.400   0.6440   0.01671   0.00835  -0.0054   0.2837   1.0000
   5.500   0.6513   0.01698   0.00853  -0.0047   0.2689   1.0000
   5.600   0.6585   0.01726   0.00872  -0.0040   0.2549   1.0000
   5.700   0.6655   0.01757   0.00893  -0.0033   0.2418   1.0000
   5.800   0.6726   0.01788   0.00914  -0.0027   0.2294   1.0000
   5.900   0.6800   0.01817   0.00939  -0.0020   0.2167   1.0000
   6.000   0.6873   0.01849   0.00966  -0.0014   0.2056   1.0000
   6.100   0.6943   0.01887   0.00992  -0.0007   0.1962   1.0000
   6.200   0.7019   0.01915   0.01020  -0.0001   0.1862   1.0000
   6.300   0.7092   0.01953   0.01051   0.0006   0.1778   1.0000
   6.400   0.7167   0.01985   0.01078   0.0012   0.1699   1.0000
   6.500   0.7242   0.02025   0.01114   0.0018   0.1628   1.0000
   6.600   0.7318   0.02056   0.01143   0.0024   0.1560   1.0000
   6.700   0.7393   0.02102   0.01179   0.0030   0.1503   1.0000
   6.800   0.7473   0.02133   0.01215   0.0036   0.1442   1.0000
   6.900   0.7550   0.02171   0.01245   0.0041   0.1393   1.0000
   7.000   0.7629   0.02218   0.01291   0.0047   0.1346   1.0000
   7.100   0.7710   0.02251   0.01329   0.0052   0.1297   1.0000
   7.200   0.7790   0.02289   0.01360   0.0057   0.1257   1.0000
   7.300   0.7873   0.02350   0.01412   0.0061   0.1220   1.0000
   7.400   0.7955   0.02384   0.01458   0.0067   0.1182   1.0000
   7.500   0.8038   0.02421   0.01496   0.0072   0.1146   1.0000
   7.600   0.8121   0.02464   0.01531   0.0076   0.1115   1.0000
   7.700   0.8209   0.02536   0.01595   0.0079   0.1086   1.0000
   7.800   0.8291   0.02575   0.01648   0.0085   0.1059   1.0000
   7.900   0.8374   0.02619   0.01700   0.0090   0.1031   1.0000
   8.000   0.8458   0.02662   0.01743   0.0095   0.1006   1.0000
   8.100   0.8545   0.02711   0.01785   0.0098   0.0982   1.0000
   8.200   0.8637   0.02802   0.01867   0.0099   0.0959   1.0000
   8.300   0.8713   0.02844   0.01926   0.0106   0.0940   1.0000
   8.400   0.8792   0.02896   0.01990   0.0111   0.0919   1.0000
   8.500   0.8874   0.02952   0.02053   0.0116   0.0901   1.0000
   8.600   0.8955   0.03005   0.02109   0.0121   0.0883   1.0000
   8.700   0.9039   0.03058   0.02160   0.0124   0.0866   1.0000
   8.800   0.9129   0.03133   0.02229   0.0126   0.0850   1.0000
   8.900   0.9206   0.03236   0.02336   0.0129   0.0835   1.0000
   9.000   0.9267   0.03292   0.02412   0.0137   0.0821   1.0000
   9.100   0.9331   0.03360   0.02496   0.0145   0.0808   1.0000
   9.200   0.9397   0.03436   0.02585   0.0151   0.0796   1.0000
   9.300   0.9463   0.03513   0.02674   0.0157   0.0785   1.0000
   9.400   0.9533   0.03587   0.02755   0.0162   0.0774   1.0000
   9.500   0.9606   0.03655   0.02827   0.0166   0.0762   1.0000
   9.600   0.9678   0.03722   0.02896   0.0170   0.0752   1.0000
   9.700   0.9752   0.03801   0.02973   0.0173   0.0741   1.0000
   9.800   0.9824   0.03942   0.03112   0.0175   0.0730   1.0000
   9.900   0.9852   0.04047   0.03236   0.0184   0.0723   1.0000
  10.000   0.9872   0.04138   0.03350   0.0195   0.0716   1.0000
