  
       XFOIL         Version 6.99
  
 Calculated polar for: NACA 0012                                       
  
 1 1 Reynolds number fixed          Mach number fixed         
  
 xtrf =   1.000 (top)        1.000 (bottom)  
 Mach =   0.000     Re =     0.103 e 6     Ncrit =   9.000
  
   alpha    CL        CD       CDp       CM     Top_Xtr  Bot_Xtr
  ------ -------- --------- --------- -------- -------- --------
   0.000  -0.0000   0.01674   0.01009   0.0000   0.9951   0.9951
   0.100   0.0335   0.01672   0.01007  -0.0046   0.9915   0.9980
   0.200   0.0646   0.01666   0.01002  -0.0088   0.9870   1.0000
   0.300   0.0922   0.01657   0.00994  -0.0124   0.9817   1.0000
   0.400   0.1185   0.01645   0.00983  -0.0157   0.9747   1.0000
   0.500   0.1477   0.01632   0.00971  -0.0194   0.9701   1.0000
   0.600   0.1728   0.01617   0.00958  -0.0223   0.9622   1.0000
   0.700   0.2010   0.01598   0.00942  -0.0257   0.9567   1.0000
   0.800   0.2226   0.01580   0.00926  -0.0279   0.9471   1.0000
   1.000   0.2649   0.01542   0.00892  -0.0318   0.9285   1.0000
   1.100   0.2820   0.01524   0.00876  -0.0328   0.9176   1.0000
   1.200   0.2992   0.01504   0.00856  -0.0338   0.9075   1.0000
   1.300   0.3107   0.01489   0.00842  -0.0337   0.8942   1.0000
   1.400   0.3211   0.01476   0.00829  -0.0334   0.8811   1.0000
   1.500   0.3310   0.01464   0.00815  -0.0329   0.8683   1.0000
   1.600   0.3405   0.01451   0.00800  -0.0323   0.8562   1.0000
   1.700   0.3488   0.01441   0.00789  -0.0315   0.8429   1.0000
   1.800   0.3566   0.01434   0.00780  -0.0306   0.8292   1.0000
   1.900   0.3645   0.01427   0.00771  -0.0298   0.8158   1.0000
   2.000   0.3724   0.01420   0.00761  -0.0289   0.8029   1.0000
   2.100   0.3805   0.01414   0.00750  -0.0280   0.7904   1.0000
   2.200   0.3883   0.01411   0.00744  -0.0271   0.7763   1.0000
   2.300   0.3963   0.01409   0.00739  -0.0263   0.7623   1.0000
   2.400   0.4044   0.01408   0.00733  -0.0255   0.7485   1.0000
   2.500   0.4126   0.01407   0.00728  -0.0247   0.7350   1.0000
   2.600   0.4209   0.01407   0.00722  -0.0240   0.7217   1.0000
   2.700   0.4291   0.01408   0.00719  -0.0232   0.7080   1.0000
   2.800   0.4373   0.01411   0.00717  -0.0225   0.6934   1.0000
   2.900   0.4455   0.01414   0.00716  -0.0218   0.6790   1.0000
   3.000   0.4538   0.01418   0.00715  -0.0211   0.6648   1.0000
   3.100   0.4621   0.01423   0.00714  -0.0204   0.6507   1.0000
   3.200   0.4705   0.01429   0.00713  -0.0197   0.6368   1.0000
   3.300   0.4788   0.01435   0.00713  -0.0190   0.6229   1.0000
   3.400   0.4871   0.01442   0.00715  -0.0183   0.6081   1.0000
   3.500   0.4953   0.01449   0.00719  -0.0177   0.5931   1.0000
   3.600   0.5036   0.01458   0.00722  -0.0171   0.5783   1.0000
   3.700   0.5118   0.01467   0.00725  -0.0164   0.5634   1.0000
   3.800   0.5200   0.01476   0.00729  -0.0157   0.5486   1.0000
   3.900   0.5282   0.01487   0.00733  -0.0151   0.5338   1.0000
   4.000   0.5363   0.01498   0.00738  -0.0144   0.5189   1.0000
   4.100   0.5444   0.01510   0.00743  -0.0138   0.5040   1.0000
   4.200   0.5523   0.01523   0.00748  -0.0131   0.4890   1.0000
   4.300   0.5603   0.01536   0.00756  -0.0124   0.4736   1.0000
   4.400   0.5682   0.01549   0.00764  -0.0118   0.4578   1.0000
   4.500   0.5760   0.01564   0.00772  -0.0111   0.4419   1.0000
   4.600   0.5838   0.01579   0.00782  -0.0105   0.4260   1.0000
   4.700   0.5915   0.01596   0.00791  -0.0098   0.4100   1.0000
   4.800   0.5991   0.01613   0.00802  -0.0091   0.3938   1.0000
   4.900   0.6066   0.01632   0.00814  -0.0084   0.3776   1.0000
   5.000   0.6141   0.01652   0.00826  -0.0078   0.3614   1.0000
   5.100   0.6215   0.01674   0.00840  -0.0071   0.3452   1.0000
   5.200   0.6288   0.01696   0.00856  -0.0064   0.3290   1.0000
   5.300   0.6361   0.01721   0.00872  -0.0057   0.3131   1.0000
   5.400   0.6433   0.01747   0.00890  -0.0050   0.2974   1.0000
   5.500   0.6505   0.01774   0.00909  -0.0043   0.2821   1.0000
   5.600   0.6577   0.01803   0.00930  -0.0036   0.2675   1.0000
   5.700   0.6648   0.01834   0.00952  -0.0029   0.2537   1.0000
   5.800   0.6719   0.01867   0.00975  -0.0023   0.2409   1.0000
   5.900   0.6789   0.01902   0.00998  -0.0016   0.2292   1.0000
   6.000   0.6864   0.01932   0.01026  -0.0009   0.2169   1.0000
   6.100   0.6937   0.01968   0.01058  -0.0003   0.2064   1.0000
   6.200   0.7008   0.02009   0.01084   0.0004   0.1976   1.0000
   6.300   0.7085   0.02039   0.01117   0.0010   0.1877   1.0000
   6.400   0.7159   0.02081   0.01149   0.0016   0.1800   1.0000
   6.500   0.7236   0.02114   0.01183   0.0022   0.1720   1.0000
   6.600   0.7312   0.02161   0.01217   0.0028   0.1657   1.0000
   6.700   0.7391   0.02193   0.01256   0.0034   0.1586   1.0000
   6.800   0.7469   0.02236   0.01286   0.0039   0.1532   1.0000
   6.900   0.7549   0.02279   0.01334   0.0045   0.1475   1.0000
   7.000   0.7630   0.02316   0.01371   0.0050   0.1423   1.0000
   7.100   0.7713   0.02369   0.01410   0.0054   0.1379   1.0000
   7.200   0.7794   0.02411   0.01462   0.0060   0.1334   1.0000
   7.300   0.7876   0.02450   0.01504   0.0065   0.1290   1.0000
   7.400   0.7961   0.02495   0.01540   0.0069   0.1254   1.0000
   7.500   0.8049   0.02563   0.01602   0.0073   0.1220   1.0000
   7.600   0.8129   0.02604   0.01657   0.0079   0.1185   1.0000
   7.700   0.8211   0.02646   0.01703   0.0084   0.1151   1.0000
   7.800   0.8297   0.02691   0.01743   0.0088   0.1122   1.0000
   7.900   0.8393   0.02775   0.01814   0.0088   0.1095   1.0000
   8.000   0.8471   0.02827   0.01881   0.0095   0.1072   1.0000
   8.100   0.8551   0.02879   0.01946   0.0101   0.1047   1.0000
   8.200   0.8631   0.02930   0.02003   0.0106   0.1022   1.0000
   8.300   0.8714   0.02978   0.02051   0.0110   0.0999   1.0000
   8.400   0.8803   0.03039   0.02104   0.0112   0.0977   1.0000
   8.500   0.8892   0.03145   0.02206   0.0114   0.0959   1.0000
   8.600   0.8959   0.03206   0.02288   0.0122   0.0944   1.0000
   8.700   0.9028   0.03276   0.02374   0.0128   0.0928   1.0000
   8.800   0.9098   0.03345   0.02456   0.0135   0.0911   1.0000
   8.900   0.9172   0.03409   0.02528   0.0140   0.0894   1.0000
   9.000   0.9249   0.03468   0.02590   0.0144   0.0878   1.0000
   9.100   0.9327   0.03528   0.02650   0.0148   0.0862   1.0000
   9.200   0.9412   0.03619   0.02734   0.0149   0.0848   1.0000
   9.300   0.9475   0.03752   0.02873   0.0153   0.0837   1.0000
   9.400   0.9516   0.03840   0.02984   0.0163   0.0830   1.0000
   9.500   0.9553   0.03939   0.03106   0.0172   0.0823   1.0000
   9.600   0.9587   0.04045   0.03232   0.0181   0.0815   1.0000
   9.700   0.9618   0.04155   0.03360   0.0190   0.0807   1.0000
   9.800   0.9646   0.04265   0.03488   0.0199   0.0798   1.0000
   9.900   0.9673   0.04374   0.03612   0.0207   0.0790   1.0000
  10.000   0.9701   0.04479   0.03730   0.0215   0.0781   1.0000
