  
       XFOIL         Version 6.99
  
 Calculated polar for: NACA 0012                                       
  
 1 1 Reynolds number fixed          Mach number fixed         
  
 xtrf =   1.000 (top)        1.000 (bottom)  
 Mach =   0.000     Re =     0.037 e 6     Ncrit =   9.000
  
   alpha    CL        CD       CDp       CM     Top_Xtr  Bot_Xtr
  ------ -------- --------- --------- -------- -------- --------
   0.000   0.0000   0.02316   0.01162  -0.0000   1.0000   1.0000
   0.100  -0.0027   0.02317   0.01163   0.0017   1.0000   1.0000
   0.200  -0.0053   0.02319   0.01165   0.0033   1.0000   1.0000
   0.300  -0.0077   0.02323   0.01168   0.0049   1.0000   1.0000
   0.400  -0.0098   0.02328   0.01173   0.0064   1.0000   1.0000
   0.500  -0.0115   0.02336   0.01179   0.0079   1.0000   1.0000
   0.600  -0.0128   0.02344   0.01186   0.0093   1.0000   1.0000
   0.700  -0.0136   0.02355   0.01195   0.0106   1.0000   1.0000
   0.800  -0.0140   0.02367   0.01205   0.0118   1.0000   1.0000
   0.900  -0.0141   0.02380   0.01217   0.0130   1.0000   1.0000
   1.000  -0.0138   0.02396   0.01231   0.0140   1.0000   1.0000
   1.100  -0.0130   0.02413   0.01247   0.0150   1.0000   1.0000
   1.200  -0.0117   0.02431   0.01264   0.0159   1.0000   1.0000
   1.300  -0.0101   0.02452   0.01283   0.0166   1.0000   1.0000
   1.400  -0.0080   0.02474   0.01304   0.0173   1.0000   1.0000
   1.500  -0.0056   0.02497   0.01327   0.0179   1.0000   1.0000
   1.600  -0.0029   0.02523   0.01351   0.0184   1.0000   1.0000
   1.700   0.0000   0.02550   0.01378   0.0189   1.0000   1.0000
   1.800   0.0032   0.02579   0.01406   0.0192   1.0000   1.0000
   1.900   0.0066   0.02609   0.01437   0.0196   1.0000   1.0000
   2.000   0.0101   0.02641   0.01469   0.0198   1.0000   1.0000
   2.100   0.0138   0.02675   0.01503   0.0200   1.0000   1.0000
   2.200   0.0176   0.02711   0.01539   0.0202   1.0000   1.0000
   2.300   0.0215   0.02749   0.01577   0.0203   1.0000   1.0000
   2.400   0.0551   0.02832   0.01668   0.0148   0.9875   1.0000
   2.500   0.0921   0.02916   0.01761   0.0089   0.9726   1.0000
   2.600   0.1281   0.02989   0.01844   0.0034   0.9573   1.0000
   2.700   0.1624   0.03052   0.01918  -0.0015   0.9416   1.0000
   2.800   0.1956   0.03105   0.01981  -0.0061   0.9255   1.0000
   2.900   0.2284   0.03148   0.02036  -0.0104   0.9091   1.0000
   3.000   0.2622   0.03181   0.02083  -0.0146   0.8922   1.0000
   3.100   0.3005   0.03203   0.02122  -0.0192   0.8747   1.0000
   3.200   0.3344   0.03214   0.02148  -0.0229   0.8567   1.0000
   3.300   0.3656   0.03214   0.02163  -0.0259   0.8386   1.0000
   3.400   0.3943   0.03206   0.02171  -0.0281   0.8208   1.0000
   3.500   0.4206   0.03192   0.02169  -0.0297   0.8029   1.0000
   3.600   0.4447   0.03173   0.02162  -0.0307   0.7851   1.0000
   3.700   0.4663   0.03151   0.02150  -0.0311   0.7675   1.0000
   3.800   0.4854   0.03128   0.02135  -0.0310   0.7500   1.0000
   3.900   0.5023   0.03107   0.02122  -0.0305   0.7327   1.0000
   4.000   0.5171   0.03088   0.02107  -0.0297   0.7155   1.0000
   4.100   0.5303   0.03071   0.02094  -0.0285   0.6982   1.0000
   4.200   0.5422   0.03059   0.02084  -0.0273   0.6811   1.0000
   4.300   0.5532   0.03048   0.02074  -0.0258   0.6638   1.0000
   4.400   0.5635   0.03040   0.02066  -0.0243   0.6464   1.0000
   4.500   0.5733   0.03035   0.02060  -0.0228   0.6289   1.0000
   4.600   0.5827   0.03032   0.02055  -0.0212   0.6113   1.0000
   4.700   0.5918   0.03033   0.02052  -0.0196   0.5936   1.0000
   4.800   0.6006   0.03035   0.02050  -0.0180   0.5758   1.0000
   4.900   0.6094   0.03040   0.02048  -0.0164   0.5579   1.0000
   5.000   0.6181   0.03048   0.02049  -0.0149   0.5401   1.0000
   5.100   0.6253   0.03071   0.02066  -0.0135   0.5220   1.0000
   5.200   0.6323   0.03099   0.02090  -0.0121   0.5040   1.0000
   5.300   0.6394   0.03128   0.02114  -0.0107   0.4861   1.0000
   5.400   0.6466   0.03158   0.02141  -0.0094   0.4685   1.0000
   5.500   0.6540   0.03193   0.02169  -0.0081   0.4516   1.0000
   5.600   0.6614   0.03230   0.02199  -0.0069   0.4349   1.0000
   5.700   0.6688   0.03268   0.02230  -0.0057   0.4188   1.0000
   5.800   0.6766   0.03310   0.02265  -0.0046   0.4036   1.0000
   5.900   0.6847   0.03351   0.02296  -0.0036   0.3889   1.0000
   6.000   0.6927   0.03394   0.02330  -0.0026   0.3746   1.0000
   6.100   0.6983   0.03463   0.02405  -0.0016   0.3614   1.0000
   6.200   0.7047   0.03533   0.02476  -0.0007   0.3491   1.0000
   6.300   0.7126   0.03588   0.02525   0.0002   0.3374   1.0000
   6.400   0.7216   0.03636   0.02563   0.0010   0.3260   1.0000
   6.500   0.7259   0.03733   0.02675   0.0018   0.3162   1.0000
   6.600   0.7347   0.03792   0.02724   0.0026   0.3066   1.0000
   6.700   0.7404   0.03875   0.02816   0.0034   0.2974   1.0000
   6.800   0.7475   0.03957   0.02897   0.0041   0.2895   1.0000
   6.900   0.7532   0.04049   0.02998   0.0048   0.2817   1.0000
   7.000   0.7614   0.04125   0.03067   0.0055   0.2745   1.0000
   7.100   0.7644   0.04243   0.03206   0.0062   0.2681   1.0000
   7.200   0.7770   0.04286   0.03226   0.0067   0.2607   1.0000
   7.300   0.7769   0.04441   0.03410   0.0075   0.2566   1.0000
   7.400   0.7801   0.04564   0.03548   0.0083   0.2516   1.0000
   7.500   0.7945   0.04598   0.03555   0.0087   0.2446   1.0000
   7.600   0.7926   0.04768   0.03758   0.0095   0.2417   1.0000
   7.700   0.7924   0.04928   0.03939   0.0102   0.2386   1.0000
   7.800   0.7947   0.05069   0.04092   0.0108   0.2352   1.0000
   7.900   0.8124   0.05087   0.04080   0.0112   0.2288   1.0000
   8.000   0.8085   0.05279   0.04300   0.0119   0.2273   1.0000
   8.100   0.8047   0.05474   0.04516   0.0125   0.2258   1.0000
   8.200   0.8008   0.05671   0.04731   0.0130   0.2244   1.0000
   8.300   0.7967   0.05872   0.04947   0.0134   0.2233   1.0000
   8.400   0.7920   0.06080   0.05167   0.0138   0.2224   1.0000
   8.500   0.7861   0.06300   0.05398   0.0140   0.2220   1.0000
   8.600   0.7788   0.06535   0.05643   0.0140   0.2221   1.0000
   8.700   0.7700   0.06786   0.05901   0.0139   0.2226   1.0000
   8.800   0.7605   0.07047   0.06167   0.0136   0.2234   1.0000
   8.900   0.7512   0.07312   0.06435   0.0131   0.2244   1.0000
   9.000   0.7421   0.07577   0.06703   0.0125   0.2255   1.0000
   9.100   0.7344   0.07838   0.06964   0.0119   0.2264   1.0000
   9.200   0.7276   0.08083   0.07209   0.0114   0.2272   1.0000
   9.300   0.7222   0.08326   0.07451   0.0108   0.2280   1.0000
   9.400   0.7185   0.08568   0.07692   0.0102   0.2285   1.0000
