  
       XFOIL         Version 6.99
  
 Calculated polar for: NACA 0012                                       
  
 1 1 Reynolds number fixed          Mach number fixed         
  
 xtrf =   1.000 (top)        1.000 (bottom)  
 Mach =   0.000     Re =     0.080 e 6     Ncrit =   9.000
  
   alpha    CL        CD       CDp       CM     Top_Xtr  Bot_Xtr
  ------ -------- --------- --------- -------- -------- --------
   0.000   0.0000   0.01798   0.01035  -0.0000   1.0000   1.0000
   0.100  -0.0111   0.01798   0.01035   0.0026   1.0000   1.0000
   0.200  -0.0215   0.01801   0.01037   0.0051   1.0000   1.0000
   0.300  -0.0307   0.01805   0.01041   0.0075   1.0000   1.0000
   0.500   0.0248   0.01827   0.01063   0.0000   0.9877   1.0000
   0.600   0.0548   0.01835   0.01072  -0.0040   0.9816   1.0000
   0.700   0.0835   0.01838   0.01077  -0.0077   0.9739   1.0000
   0.800   0.1131   0.01839   0.01081  -0.0115   0.9670   1.0000
   0.900   0.1425   0.01835   0.01080  -0.0151   0.9593   1.0000
   1.000   0.1728   0.01829   0.01077  -0.0189   0.9523   1.0000
   1.100   0.2033   0.01818   0.01070  -0.0226   0.9445   1.0000
   1.200   0.2334   0.01803   0.01059  -0.0262   0.9371   1.0000
   1.400   0.2821   0.01768   0.01034  -0.0309   0.9174   1.0000
   1.500   0.3074   0.01744   0.01013  -0.0332   0.9085   1.0000
   1.600   0.3230   0.01730   0.01001  -0.0338   0.8957   1.0000
   1.700   0.3385   0.01714   0.00987  -0.0343   0.8835   1.0000
   1.800   0.3538   0.01696   0.00970  -0.0346   0.8720   1.0000
   1.900   0.3661   0.01681   0.00956  -0.0343   0.8594   1.0000
   2.000   0.3757   0.01671   0.00947  -0.0337   0.8457   1.0000
   2.100   0.3852   0.01661   0.00937  -0.0329   0.8324   1.0000
   2.200   0.3946   0.01651   0.00925  -0.0321   0.8195   1.0000
   2.300   0.4040   0.01641   0.00912  -0.0312   0.8074   1.0000
   2.400   0.4117   0.01636   0.00906  -0.0302   0.7932   1.0000
   2.500   0.4194   0.01633   0.00901  -0.0292   0.7792   1.0000
   2.600   0.4273   0.01631   0.00896  -0.0282   0.7654   1.0000
   2.700   0.4353   0.01628   0.00891  -0.0272   0.7519   1.0000
   2.800   0.4435   0.01626   0.00884  -0.0262   0.7388   1.0000
   2.900   0.4514   0.01626   0.00879  -0.0252   0.7249   1.0000
   3.000   0.4591   0.01628   0.00879  -0.0242   0.7102   1.0000
   3.100   0.4669   0.01631   0.00878  -0.0233   0.6956   1.0000
   3.200   0.4749   0.01635   0.00877  -0.0224   0.6811   1.0000
   3.300   0.4828   0.01639   0.00877  -0.0215   0.6667   1.0000
   3.400   0.4909   0.01645   0.00876  -0.0206   0.6524   1.0000
   3.500   0.4990   0.01651   0.00877  -0.0197   0.6380   1.0000
   3.600   0.5071   0.01657   0.00877  -0.0189   0.6235   1.0000
   3.700   0.5149   0.01666   0.00881  -0.0180   0.6080   1.0000
   3.800   0.5228   0.01675   0.00885  -0.0172   0.5925   1.0000
   3.900   0.5306   0.01685   0.00890  -0.0164   0.5770   1.0000
   4.000   0.5385   0.01696   0.00895  -0.0156   0.5614   1.0000
   4.100   0.5464   0.01708   0.00900  -0.0148   0.5457   1.0000
   4.200   0.5541   0.01720   0.00907  -0.0140   0.5298   1.0000
   4.300   0.5619   0.01734   0.00915  -0.0132   0.5139   1.0000
   4.400   0.5696   0.01748   0.00922  -0.0124   0.4978   1.0000
   4.500   0.5773   0.01763   0.00930  -0.0116   0.4815   1.0000
   4.600   0.5849   0.01780   0.00940  -0.0108   0.4651   1.0000
   4.700   0.5924   0.01797   0.00950  -0.0100   0.4485   1.0000
   4.800   0.5998   0.01816   0.00961  -0.0092   0.4318   1.0000
   4.900   0.6072   0.01836   0.00973  -0.0084   0.4149   1.0000
   5.000   0.6145   0.01858   0.00987  -0.0077   0.3981   1.0000
   5.100   0.6218   0.01881   0.01001  -0.0069   0.3812   1.0000
   5.200   0.6290   0.01906   0.01018  -0.0061   0.3643   1.0000
   5.300   0.6361   0.01932   0.01036  -0.0053   0.3478   1.0000
   5.400   0.6432   0.01961   0.01055  -0.0046   0.3314   1.0000
   5.500   0.6503   0.01991   0.01076  -0.0038   0.3155   1.0000
   5.600   0.6574   0.02023   0.01100  -0.0031   0.3002   1.0000
   5.700   0.6646   0.02057   0.01125  -0.0023   0.2856   1.0000
   5.800   0.6718   0.02093   0.01151  -0.0016   0.2719   1.0000
   5.900   0.6790   0.02131   0.01175  -0.0009   0.2594   1.0000
   6.000   0.6863   0.02167   0.01206  -0.0002   0.2468   1.0000
   6.100   0.6937   0.02206   0.01244   0.0004   0.2350   1.0000
   6.200   0.7012   0.02248   0.01277   0.0011   0.2247   1.0000
   6.300   0.7089   0.02288   0.01308   0.0017   0.2151   1.0000
   6.400   0.7166   0.02332   0.01353   0.0023   0.2057   1.0000
   6.500   0.7247   0.02379   0.01383   0.0028   0.1981   1.0000
   6.600   0.7323   0.02420   0.01434   0.0035   0.1896   1.0000
   6.700   0.7406   0.02468   0.01466   0.0039   0.1830   1.0000
   6.800   0.7485   0.02516   0.01524   0.0046   0.1761   1.0000
   6.900   0.7568   0.02560   0.01562   0.0050   0.1700   1.0000
   7.000   0.7653   0.02619   0.01616   0.0055   0.1646   1.0000
   7.100   0.7731   0.02665   0.01672   0.0061   0.1589   1.0000
   7.200   0.7819   0.02715   0.01712   0.0065   0.1543   1.0000
   7.300   0.7906   0.02782   0.01777   0.0069   0.1499   1.0000
   7.400   0.7983   0.02833   0.01842   0.0075   0.1453   1.0000
   7.500   0.8066   0.02882   0.01890   0.0080   0.1412   1.0000
   7.600   0.8163   0.02956   0.01946   0.0081   0.1377   1.0000
   7.700   0.8238   0.03022   0.02031   0.0088   0.1345   1.0000
   7.800   0.8315   0.03083   0.02105   0.0094   0.1311   1.0000
   7.900   0.8395   0.03139   0.02164   0.0099   0.1279   1.0000
   8.000   0.8484   0.03198   0.02216   0.0102   0.1249   1.0000
   8.100   0.8571   0.03295   0.02309   0.0104   0.1224   1.0000
   8.200   0.8633   0.03369   0.02408   0.0112   0.1202   1.0000
   8.300   0.8700   0.03449   0.02504   0.0119   0.1180   1.0000
   8.400   0.8772   0.03523   0.02587   0.0125   0.1156   1.0000
   8.500   0.8851   0.03587   0.02654   0.0129   0.1134   1.0000
   8.600   0.8935   0.03655   0.02717   0.0132   0.1112   1.0000
   8.700   0.9021   0.03781   0.02832   0.0133   0.1092   1.0000
   8.800   0.9057   0.03867   0.02947   0.0144   0.1079   1.0000
   8.900   0.9097   0.03973   0.03077   0.0153   0.1068   1.0000
   9.000   0.9136   0.04085   0.03211   0.0162   0.1056   1.0000
   9.100   0.9173   0.04198   0.03344   0.0170   0.1044   1.0000
   9.200   0.9209   0.04309   0.03471   0.0178   0.1032   1.0000
   9.300   0.9250   0.04413   0.03587   0.0185   0.1019   1.0000
   9.400   0.9302   0.04503   0.03684   0.0191   0.1005   1.0000
   9.500   0.9383   0.04573   0.03750   0.0194   0.0989   1.0000
   9.600   0.9467   0.04662   0.03832   0.0195   0.0975   1.0000
   9.700   0.9524   0.04823   0.03992   0.0197   0.0964   1.0000
   9.800   0.9529   0.04977   0.04162   0.0206   0.0960   1.0000
   9.900   0.9522   0.05125   0.04331   0.0216   0.0958   1.0000
  10.000   0.9509   0.05280   0.04506   0.0226   0.0956   1.0000
