  
       XFOIL         Version 6.99
  
 Calculated polar for: NACA 0012                                       
  
 1 1 Reynolds number fixed          Mach number fixed         
  
 xtrf =   1.000 (top)        1.000 (bottom)  
 Mach =   0.000     Re =     0.091 e 6     Ncrit =   9.000
  
   alpha    CL        CD       CDp       CM     Top_Xtr  Bot_Xtr
  ------ -------- --------- --------- -------- -------- --------
   0.000   0.0000   0.01732   0.01023  -0.0000   1.0000   1.0000
   0.100  -0.0133   0.01733   0.01024   0.0028   1.0000   1.0000
   0.300   0.0383   0.01736   0.01027  -0.0039   0.9888   1.0000
   0.400   0.0673   0.01735   0.01027  -0.0078   0.9832   1.0000
   0.500   0.0944   0.01731   0.01024  -0.0112   0.9758   1.0000
   0.600   0.1245   0.01724   0.01020  -0.0151   0.9705   1.0000
   0.700   0.1505   0.01715   0.01012  -0.0182   0.9625   1.0000
   0.800   0.1818   0.01702   0.01002  -0.0221   0.9572   1.0000
   0.900   0.2074   0.01687   0.00991  -0.0250   0.9488   1.0000
   1.000   0.2353   0.01668   0.00975  -0.0282   0.9419   1.0000
   1.100   0.2561   0.01652   0.00961  -0.0300   0.9315   1.0000
   1.200   0.2803   0.01630   0.00942  -0.0323   0.9233   1.0000
   1.300   0.2970   0.01613   0.00928  -0.0333   0.9113   1.0000
   1.400   0.3122   0.01597   0.00913  -0.0338   0.8992   1.0000
   1.500   0.3270   0.01580   0.00897  -0.0342   0.8879   1.0000
   1.600   0.3395   0.01564   0.00881  -0.0341   0.8758   1.0000
   1.700   0.3490   0.01554   0.00870  -0.0335   0.8621   1.0000
   1.800   0.3582   0.01543   0.00860  -0.0328   0.8489   1.0000
   1.900   0.3673   0.01533   0.00848  -0.0321   0.8362   1.0000
   2.000   0.3764   0.01522   0.00834  -0.0312   0.8241   1.0000
   2.100   0.3842   0.01516   0.00827  -0.0303   0.8101   1.0000
   2.200   0.3920   0.01512   0.00820  -0.0294   0.7962   1.0000
   2.300   0.4000   0.01507   0.00813  -0.0285   0.7827   1.0000
   2.400   0.4081   0.01504   0.00805  -0.0275   0.7695   1.0000
   2.500   0.4163   0.01500   0.00797  -0.0266   0.7567   1.0000
   2.600   0.4241   0.01500   0.00793  -0.0257   0.7425   1.0000
   2.700   0.4320   0.01501   0.00791  -0.0249   0.7281   1.0000
   2.800   0.4399   0.01502   0.00789  -0.0240   0.7140   1.0000
   2.900   0.4480   0.01504   0.00786  -0.0232   0.7000   1.0000
   3.000   0.4562   0.01507   0.00783  -0.0224   0.6862   1.0000
   3.100   0.4644   0.01511   0.00780  -0.0215   0.6725   1.0000
   3.200   0.4725   0.01516   0.00780  -0.0207   0.6580   1.0000
   3.300   0.4806   0.01522   0.00782  -0.0200   0.6430   1.0000
   3.400   0.4887   0.01528   0.00784  -0.0192   0.6282   1.0000
   3.500   0.4968   0.01536   0.00787  -0.0185   0.6134   1.0000
   3.600   0.5049   0.01544   0.00789  -0.0178   0.5986   1.0000
   3.700   0.5131   0.01553   0.00792  -0.0170   0.5839   1.0000
   3.800   0.5212   0.01562   0.00795  -0.0163   0.5691   1.0000
   3.900   0.5292   0.01573   0.00798  -0.0156   0.5543   1.0000
   4.000   0.5373   0.01584   0.00802  -0.0148   0.5394   1.0000
   4.100   0.5452   0.01595   0.00808  -0.0141   0.5238   1.0000
   4.200   0.5531   0.01608   0.00815  -0.0134   0.5081   1.0000
   4.300   0.5609   0.01621   0.00823  -0.0127   0.4922   1.0000
   4.400   0.5687   0.01635   0.00831  -0.0120   0.4762   1.0000
   4.500   0.5764   0.01650   0.00840  -0.0113   0.4602   1.0000
   4.600   0.5841   0.01666   0.00849  -0.0105   0.4440   1.0000
   4.700   0.5917   0.01683   0.00859  -0.0098   0.4277   1.0000
   4.800   0.5992   0.01701   0.00870  -0.0091   0.4113   1.0000
   4.900   0.6067   0.01721   0.00882  -0.0084   0.3948   1.0000
   5.000   0.6141   0.01742   0.00895  -0.0076   0.3783   1.0000
   5.100   0.6214   0.01764   0.00909  -0.0069   0.3618   1.0000
   5.200   0.6286   0.01788   0.00925  -0.0062   0.3454   1.0000
   5.300   0.6358   0.01813   0.00942  -0.0055   0.3291   1.0000
   5.400   0.6430   0.01840   0.00960  -0.0047   0.3131   1.0000
   5.500   0.6501   0.01869   0.00981  -0.0040   0.2975   1.0000
   5.600   0.6572   0.01900   0.01003  -0.0033   0.2824   1.0000
   5.700   0.6644   0.01932   0.01026  -0.0026   0.2681   1.0000
   5.800   0.6715   0.01966   0.01052  -0.0019   0.2548   1.0000
   5.900   0.6787   0.02002   0.01076  -0.0012   0.2428   1.0000
   6.000   0.6859   0.02036   0.01103  -0.0005   0.2307   1.0000
   6.100   0.6933   0.02072   0.01137   0.0001   0.2192   1.0000
   6.200   0.7007   0.02113   0.01169   0.0008   0.2095   1.0000
   6.300   0.7082   0.02149   0.01199   0.0014   0.2002   1.0000
   6.400   0.7159   0.02190   0.01239   0.0020   0.1913   1.0000
   6.500   0.7235   0.02230   0.01267   0.0026   0.1838   1.0000
   6.600   0.7314   0.02273   0.01313   0.0032   0.1761   1.0000
   6.700   0.7393   0.02313   0.01345   0.0037   0.1696   1.0000
   6.800   0.7474   0.02362   0.01393   0.0043   0.1635   1.0000
   6.900   0.7554   0.02400   0.01433   0.0048   0.1573   1.0000
   7.000   0.7640   0.02456   0.01472   0.0052   0.1524   1.0000
   7.100   0.7720   0.02500   0.01529   0.0058   0.1473   1.0000
   7.200   0.7802   0.02542   0.01572   0.0063   0.1424   1.0000
   7.300   0.7890   0.02596   0.01612   0.0066   0.1383   1.0000
   7.400   0.7972   0.02653   0.01677   0.0072   0.1343   1.0000
   7.500   0.8053   0.02700   0.01733   0.0077   0.1304   1.0000
   7.600   0.8139   0.02747   0.01778   0.0081   0.1269   1.0000
   7.700   0.8233   0.02816   0.01832   0.0083   0.1237   1.0000
   7.800   0.8311   0.02878   0.01907   0.0089   0.1207   1.0000
   7.900   0.8389   0.02931   0.01972   0.0095   0.1176   1.0000
   8.000   0.8471   0.02985   0.02033   0.0100   0.1147   1.0000
   8.100   0.8557   0.03041   0.02087   0.0104   0.1123   1.0000
   8.200   0.8653   0.03124   0.02158   0.0104   0.1100   1.0000
   8.300   0.8725   0.03205   0.02252   0.0111   0.1079   1.0000
   8.400   0.8791   0.03269   0.02336   0.0118   0.1057   1.0000
   8.500   0.8863   0.03335   0.02414   0.0124   0.1035   1.0000
   8.600   0.8940   0.03399   0.02483   0.0129   0.1015   1.0000
   8.700   0.9018   0.03467   0.02554   0.0133   0.0998   1.0000
   8.800   0.9099   0.03541   0.02628   0.0137   0.0982   1.0000
   8.900   0.9186   0.03654   0.02735   0.0138   0.0966   1.0000
   9.000   0.9236   0.03759   0.02857   0.0146   0.0955   1.0000
   9.100   0.9275   0.03845   0.02969   0.0155   0.0943   1.0000
   9.200   0.9315   0.03940   0.03085   0.0165   0.0930   1.0000
   9.300   0.9356   0.04037   0.03200   0.0173   0.0916   1.0000
   9.400   0.9399   0.04135   0.03312   0.0180   0.0904   1.0000
   9.500   0.9443   0.04236   0.03425   0.0187   0.0894   1.0000
   9.600   0.9485   0.04344   0.03546   0.0194   0.0886   1.0000
   9.700   0.9529   0.04451   0.03662   0.0201   0.0878   1.0000
   9.800   0.9583   0.04549   0.03766   0.0206   0.0870   1.0000
   9.900   0.9655   0.04638   0.03854   0.0209   0.0860   1.0000
  10.000   0.9715   0.04750   0.03966   0.0212   0.0851   1.0000
