  
       XFOIL         Version 6.99
  
 Calculated polar for: NACA 0012                                       
  
 1 1 Reynolds number fixed          Mach number fixed         
  
 xtrf =   1.000 (top)        1.000 (bottom)  
 Mach =   0.000     Re =     0.060 e 6     Ncrit =   9.000
  
   alpha    CL        CD       CDp       CM     Top_Xtr  Bot_Xtr
  ------ -------- --------- --------- -------- -------- --------
   0.000   0.0000   0.01955   0.01069  -0.0000   1.0000   1.0000
   0.100  -0.0073   0.01956   0.01070   0.0022   1.0000   1.0000
   0.200  -0.0142   0.01959   0.01072   0.0043   1.0000   1.0000
   0.300  -0.0206   0.01963   0.01075   0.0064   1.0000   1.0000
   0.400  -0.0260   0.01970   0.01081   0.0083   1.0000   1.0000
   0.500  -0.0304   0.01978   0.01088   0.0100   1.0000   1.0000
   0.600  -0.0337   0.01989   0.01097   0.0116   1.0000   1.0000
   0.700  -0.0360   0.02002   0.01108   0.0130   1.0000   1.0000
   0.800  -0.0375   0.02016   0.01121   0.0142   1.0000   1.0000
   0.900  -0.0320   0.02036   0.01140   0.0142   0.9985   1.0000
   1.000   0.0002   0.02068   0.01174   0.0096   0.9903   1.0000
   1.100   0.0328   0.02098   0.01207   0.0050   0.9824   1.0000
   1.200   0.0635   0.02120   0.01233   0.0008   0.9729   1.0000
   1.300   0.0935   0.02139   0.01255  -0.0032   0.9633   1.0000
   1.400   0.1294   0.02154   0.01276  -0.0081   0.9553   1.0000
   1.500   0.1573   0.02162   0.01289  -0.0115   0.9444   1.0000
   1.600   0.1885   0.02166   0.01299  -0.0154   0.9343   1.0000
   1.700   0.2281   0.02161   0.01303  -0.0206   0.9257   1.0000
   1.800   0.2575   0.02154   0.01302  -0.0239   0.9143   1.0000
   1.900   0.2906   0.02136   0.01293  -0.0277   0.9041   1.0000
   2.000   0.3210   0.02113   0.01277  -0.0307   0.8931   1.0000
   2.100   0.3417   0.02098   0.01269  -0.0321   0.8801   1.0000
   2.200   0.3629   0.02079   0.01254  -0.0334   0.8675   1.0000
   2.300   0.3844   0.02053   0.01233  -0.0346   0.8557   1.0000
   2.400   0.4004   0.02034   0.01217  -0.0347   0.8427   1.0000
   2.500   0.4120   0.02024   0.01209  -0.0342   0.8286   1.0000
   2.600   0.4232   0.02013   0.01200  -0.0336   0.8148   1.0000
   2.700   0.4342   0.02002   0.01190  -0.0329   0.8014   1.0000
   2.800   0.4451   0.01989   0.01176  -0.0320   0.7884   1.0000
   2.900   0.4549   0.01978   0.01165  -0.0310   0.7750   1.0000
   3.000   0.4628   0.01976   0.01162  -0.0298   0.7603   1.0000
   3.100   0.4708   0.01974   0.01159  -0.0287   0.7457   1.0000
   3.200   0.4789   0.01972   0.01155  -0.0275   0.7313   1.0000
   3.300   0.4870   0.01971   0.01151  -0.0263   0.7169   1.0000
   3.400   0.4952   0.01970   0.01146  -0.0252   0.7027   1.0000
   3.500   0.5034   0.01969   0.01142  -0.0240   0.6884   1.0000
   3.600   0.5116   0.01970   0.01138  -0.0228   0.6738   1.0000
   3.700   0.5191   0.01976   0.01140  -0.0217   0.6582   1.0000
   3.800   0.5267   0.01983   0.01142  -0.0206   0.6425   1.0000
   3.900   0.5343   0.01991   0.01145  -0.0195   0.6266   1.0000
   4.000   0.5420   0.01999   0.01149  -0.0184   0.6107   1.0000
   4.100   0.5496   0.02009   0.01153  -0.0174   0.5946   1.0000
   4.200   0.5572   0.02020   0.01158  -0.0163   0.5783   1.0000
   4.300   0.5648   0.02032   0.01164  -0.0153   0.5618   1.0000
   4.400   0.5724   0.02046   0.01172  -0.0143   0.5452   1.0000
   4.500   0.5800   0.02060   0.01179  -0.0133   0.5284   1.0000
   4.600   0.5875   0.02076   0.01187  -0.0123   0.5114   1.0000
   4.700   0.5949   0.02094   0.01197  -0.0113   0.4943   1.0000
   4.800   0.6023   0.02113   0.01207  -0.0103   0.4770   1.0000
   4.900   0.6097   0.02133   0.01219  -0.0094   0.4597   1.0000
   5.000   0.6171   0.02156   0.01232  -0.0084   0.4424   1.0000
   5.100   0.6243   0.02180   0.01246  -0.0075   0.4251   1.0000
   5.200   0.6316   0.02206   0.01261  -0.0066   0.4078   1.0000
   5.300   0.6389   0.02235   0.01281  -0.0057   0.3909   1.0000
   5.400   0.6460   0.02266   0.01300  -0.0049   0.3740   1.0000
   5.500   0.6531   0.02299   0.01324  -0.0040   0.3574   1.0000
   5.600   0.6603   0.02334   0.01350  -0.0032   0.3415   1.0000
   5.700   0.6674   0.02371   0.01379  -0.0024   0.3260   1.0000
   5.800   0.6745   0.02409   0.01412  -0.0016   0.3110   1.0000
   5.900   0.6816   0.02450   0.01448  -0.0008   0.2969   1.0000
   6.000   0.6890   0.02495   0.01488  -0.0001   0.2837   1.0000
   6.100   0.6967   0.02540   0.01524   0.0006   0.2718   1.0000
   6.200   0.7048   0.02584   0.01553   0.0012   0.2610   1.0000
   6.300   0.7119   0.02632   0.01609   0.0020   0.2497   1.0000
   6.400   0.7199   0.02685   0.01655   0.0026   0.2401   1.0000
   6.500   0.7280   0.02731   0.01693   0.0031   0.2310   1.0000
   6.600   0.7356   0.02789   0.01756   0.0038   0.2224   1.0000
   6.700   0.7443   0.02840   0.01794   0.0042   0.2148   1.0000
   6.800   0.7518   0.02903   0.01866   0.0049   0.2074   1.0000
   6.900   0.7601   0.02954   0.01911   0.0054   0.2005   1.0000
   7.000   0.7684   0.03023   0.01980   0.0059   0.1946   1.0000
   7.100   0.7759   0.03085   0.02053   0.0065   0.1885   1.0000
   7.200   0.7852   0.03143   0.02096   0.0068   0.1832   1.0000
   7.300   0.7921   0.03220   0.02189   0.0075   0.1782   1.0000
   7.400   0.7997   0.03287   0.02264   0.0081   0.1733   1.0000
   7.500   0.8087   0.03350   0.02319   0.0085   0.1690   1.0000
   7.600   0.8165   0.03439   0.02411   0.0090   0.1653   1.0000
   7.700   0.8223   0.03521   0.02517   0.0098   0.1614   1.0000
   7.800   0.8299   0.03592   0.02593   0.0103   0.1575   1.0000
   7.900   0.8388   0.03660   0.02654   0.0107   0.1541   1.0000
   8.000   0.8470   0.03765   0.02755   0.0110   0.1514   1.0000
   8.100   0.8510   0.03869   0.02890   0.0120   0.1490   1.0000
   8.200   0.8556   0.03971   0.03014   0.0128   0.1464   1.0000
   8.300   0.8614   0.04062   0.03117   0.0135   0.1437   1.0000
   8.400   0.8693   0.04135   0.03189   0.0139   0.1409   1.0000
   8.500   0.8786   0.04220   0.03262   0.0140   0.1384   1.0000
   8.600   0.8841   0.04354   0.03403   0.0146   0.1368   1.0000
   8.700   0.8856   0.04487   0.03565   0.0156   0.1357   1.0000
   8.800   0.8866   0.04626   0.03730   0.0166   0.1346   1.0000
   8.900   0.8873   0.04770   0.03897   0.0176   0.1334   1.0000
   9.000   0.8877   0.04915   0.04062   0.0184   0.1323   1.0000
   9.100   0.8880   0.05060   0.04225   0.0193   0.1311   1.0000
   9.200   0.8883   0.05205   0.04385   0.0201   0.1300   1.0000
   9.300   0.8886   0.05348   0.04541   0.0208   0.1289   1.0000
   9.400   0.8889   0.05492   0.04696   0.0215   0.1280   1.0000
   9.500   0.8882   0.05649   0.04865   0.0221   0.1274   1.0000
   9.600   0.8844   0.05834   0.05066   0.0228   0.1273   1.0000
   9.700   0.8767   0.06052   0.05300   0.0236   0.1277   1.0000
   9.800   0.8663   0.06290   0.05555   0.0242   0.1284   1.0000
   9.900   0.8533   0.06545   0.05824   0.0246   0.1293   1.0000
  10.000   0.8378   0.06813   0.06105   0.0249   0.1305   1.0000
