  
       XFOIL         Version 6.99
  
 Calculated polar for: NACA 0012                                       
  
 1 1 Reynolds number fixed          Mach number fixed         
  
 xtrf =   1.000 (top)        1.000 (bottom)  
 Mach =   0.000     Re =     0.048 e 6     Ncrit =   9.000
  
   alpha    CL        CD       CDp       CM     Top_Xtr  Bot_Xtr
  ------ -------- --------- --------- -------- -------- --------
   0.000   0.0000   0.02100   0.01105  -0.0000   1.0000   1.0000
   0.100  -0.0050   0.02101   0.01105   0.0019   1.0000   1.0000
   0.200  -0.0098   0.02103   0.01107   0.0038   1.0000   1.0000
   0.300  -0.0142   0.02107   0.01111   0.0057   1.0000   1.0000
   0.400  -0.0181   0.02113   0.01116   0.0074   1.0000   1.0000
   0.500  -0.0212   0.02121   0.01123   0.0090   1.0000   1.0000
   0.600  -0.0237   0.02131   0.01131   0.0105   1.0000   1.0000
   0.700  -0.0254   0.02143   0.01141   0.0119   1.0000   1.0000
   0.800  -0.0265   0.02156   0.01153   0.0132   1.0000   1.0000
   0.900  -0.0271   0.02171   0.01166   0.0143   1.0000   1.0000
   1.000  -0.0270   0.02189   0.01182   0.0153   1.0000   1.0000
   1.100  -0.0262   0.02208   0.01199   0.0162   1.0000   1.0000
   1.200  -0.0249   0.02228   0.01219   0.0170   1.0000   1.0000
   1.300  -0.0230   0.02251   0.01240   0.0177   1.0000   1.0000
   1.400  -0.0207   0.02276   0.01264   0.0182   1.0000   1.0000
   1.500  -0.0033   0.02314   0.01304   0.0160   0.9953   1.0000
   1.600   0.0308   0.02365   0.01359   0.0109   0.9847   1.0000
   1.700   0.0635   0.02409   0.01408   0.0061   0.9735   1.0000
   1.800   0.0948   0.02446   0.01451   0.0017   0.9619   1.0000
   1.900   0.1269   0.02478   0.01490  -0.0026   0.9502   1.0000
   2.000   0.1633   0.02506   0.01526  -0.0076   0.9389   1.0000
   2.100   0.1955   0.02523   0.01552  -0.0117   0.9263   1.0000
   2.200   0.2251   0.02535   0.01573  -0.0153   0.9130   1.0000
   2.300   0.2593   0.02539   0.01588  -0.0194   0.9000   1.0000
   2.400   0.3007   0.02528   0.01590  -0.0246   0.8873   1.0000
   2.500   0.3420   0.02498   0.01575  -0.0293   0.8746   1.0000
   2.600   0.3649   0.02485   0.01570  -0.0309   0.8600   1.0000
   2.700   0.3864   0.02470   0.01562  -0.0321   0.8455   1.0000
   2.800   0.4066   0.02452   0.01551  -0.0329   0.8310   1.0000
   2.900   0.4253   0.02432   0.01538  -0.0333   0.8167   1.0000
   3.000   0.4425   0.02411   0.01521  -0.0334   0.8024   1.0000
   3.100   0.4584   0.02388   0.01501  -0.0332   0.7885   1.0000
   3.200   0.4725   0.02366   0.01482  -0.0325   0.7745   1.0000
   3.300   0.4819   0.02361   0.01478  -0.0314   0.7593   1.0000
   3.400   0.4911   0.02356   0.01474  -0.0302   0.7441   1.0000
   3.500   0.5001   0.02352   0.01469  -0.0290   0.7289   1.0000
   3.600   0.5090   0.02348   0.01466  -0.0278   0.7137   1.0000
   3.700   0.5177   0.02345   0.01461  -0.0265   0.6984   1.0000
   3.800   0.5262   0.02343   0.01457  -0.0251   0.6830   1.0000
   3.900   0.5346   0.02342   0.01453  -0.0238   0.6674   1.0000
   4.000   0.5428   0.02344   0.01451  -0.0225   0.6516   1.0000
   4.100   0.5508   0.02347   0.01450  -0.0211   0.6356   1.0000
   4.200   0.5587   0.02352   0.01450  -0.0198   0.6192   1.0000
   4.300   0.5665   0.02360   0.01452  -0.0185   0.6026   1.0000
   4.400   0.5742   0.02369   0.01458  -0.0173   0.5857   1.0000
   4.500   0.5817   0.02381   0.01464  -0.0160   0.5684   1.0000
   4.600   0.5891   0.02395   0.01471  -0.0148   0.5510   1.0000
   4.700   0.5966   0.02411   0.01480  -0.0136   0.5334   1.0000
   4.800   0.6040   0.02428   0.01491  -0.0124   0.5156   1.0000
   4.900   0.6113   0.02448   0.01502  -0.0113   0.4978   1.0000
   5.000   0.6187   0.02469   0.01515  -0.0101   0.4800   1.0000
   5.100   0.6261   0.02492   0.01529  -0.0090   0.4622   1.0000
   5.200   0.6334   0.02518   0.01546  -0.0080   0.4446   1.0000
   5.300   0.6408   0.02547   0.01565  -0.0069   0.4272   1.0000
   5.400   0.6480   0.02577   0.01586  -0.0059   0.4100   1.0000
   5.500   0.6553   0.02611   0.01611  -0.0049   0.3933   1.0000
   5.600   0.6625   0.02648   0.01639  -0.0040   0.3770   1.0000
   5.700   0.6697   0.02687   0.01670  -0.0031   0.3612   1.0000
   5.800   0.6769   0.02731   0.01708  -0.0022   0.3461   1.0000
   5.900   0.6841   0.02777   0.01748  -0.0013   0.3318   1.0000
   6.000   0.6915   0.02823   0.01788  -0.0005   0.3183   1.0000
   6.100   0.6995   0.02870   0.01823   0.0002   0.3060   1.0000
   6.200   0.7075   0.02919   0.01865   0.0009   0.2942   1.0000
   6.300   0.7143   0.02977   0.01929   0.0017   0.2826   1.0000
   6.400   0.7222   0.03033   0.01978   0.0024   0.2725   1.0000
   6.500   0.7304   0.03086   0.02025   0.0030   0.2629   1.0000
   6.600   0.7374   0.03156   0.02102   0.0037   0.2539   1.0000
   6.700   0.7466   0.03208   0.02137   0.0042   0.2456   1.0000
   6.800   0.7527   0.03285   0.02231   0.0050   0.2377   1.0000
   6.900   0.7618   0.03342   0.02277   0.0055   0.2305   1.0000
   7.000   0.7682   0.03427   0.02375   0.0062   0.2240   1.0000
   7.100   0.7758   0.03493   0.02443   0.0068   0.2175   1.0000
   7.200   0.7847   0.03567   0.02508   0.0072   0.2119   1.0000
   7.300   0.7898   0.03664   0.02630   0.0080   0.2068   1.0000
   7.400   0.7978   0.03734   0.02700   0.0085   0.2015   1.0000
   7.500   0.8070   0.03814   0.02767   0.0089   0.1968   1.0000
   7.600   0.8104   0.03924   0.02908   0.0098   0.1929   1.0000
   7.700   0.8162   0.04019   0.03016   0.0105   0.1888   1.0000
   7.800   0.8251   0.04094   0.03085   0.0109   0.1849   1.0000
   7.900   0.8333   0.04195   0.03179   0.0113   0.1815   1.0000
   8.000   0.8347   0.04326   0.03343   0.0123   0.1789   1.0000
   8.100   0.8373   0.04452   0.03491   0.0131   0.1761   1.0000
   8.200   0.8415   0.04564   0.03616   0.0138   0.1733   1.0000
   8.300   0.8487   0.04656   0.03708   0.0143   0.1704   1.0000
   8.400   0.8600   0.04743   0.03780   0.0144   0.1675   1.0000
   8.500   0.8616   0.04895   0.03950   0.0152   0.1661   1.0000
   8.600   0.8603   0.05059   0.04141   0.0161   0.1649   1.0000
   8.700   0.8586   0.05227   0.04332   0.0170   0.1638   1.0000
   8.800   0.8565   0.05400   0.04526   0.0178   0.1628   1.0000
   8.900   0.8539   0.05579   0.04722   0.0185   0.1619   1.0000
   9.000   0.8504   0.05764   0.04923   0.0192   0.1612   1.0000
   9.100   0.8459   0.05959   0.05133   0.0198   0.1608   1.0000
   9.200   0.8400   0.06165   0.05354   0.0203   0.1607   1.0000
   9.300   0.8325   0.06386   0.05587   0.0207   0.1610   1.0000
   9.400   0.8238   0.06619   0.05830   0.0209   0.1615   1.0000
   9.500   0.8142   0.06860   0.06079   0.0211   0.1622   1.0000
   9.600   0.8044   0.07104   0.06330   0.0210   0.1629   1.0000
   9.700   0.7950   0.07350   0.06581   0.0208   0.1638   1.0000
   9.800   0.7861   0.07585   0.06819   0.0207   0.1645   1.0000
   9.900   0.7787   0.07816   0.07052   0.0205   0.1653   1.0000
  10.000   0.7731   0.08049   0.07285   0.0202   0.1659   1.0000
